pglib_opf_case588_sdet/dapi/pglib_opf_case588_sdet_4regions_dapi.m
% -------------------------------------------------------------------------
% Partitioned MATPOWER Case File
% Copyright (c) 2025 Milad Hasanzadeh
% Generated on: 2026-06-14
% This file contains partitioned data for 4 regions


% -------------------- mpc_regionR1 --------------------

mpc_regionR1.version = '2';
mpc_regionR1.baseMVA = 100.0000;
mpc_regionR1.bus = [
%	bus_i       type        Pd          Qd          Gs          Bs          area        Vm          Va          baseKV      zone        Vmax        Vmin        
	 1	 1	 131.79	 28.55	 0	 0	 1	 1	 0	 345	 1	 1.1	 0.9;
	 2	 1	 0	 0	 0	-20	 1	 1	 0	 345	 1	 1.1	 0.9;
	 3	 2	 0	 0	 0	 62.35	 1	 1	 0	 500	 1	 1.1	 0.9;
	 4	 2	 0	 0	 0	 0	 1	 1	 0	 500	 1	 1.1	 0.9;
	 5	 1	 47.66	 85.89	 0	 0	 1	 1	 0	 500	 1	 1.1	 0.9;
	 6	 1	 0	 0	 0	 0	 1	 1	 0	 500	 1	 1.1	 0.9;
	 7	 1	 0	 0	 0	 0	 1	 1	 0	 345	 1	 1.1	 0.9;
	 8	 1	 0	 0	 0	 0	 1	 1	 0	 345	 1	 1.1	 0.9;
	 9	 2	 0	 0	 0	 8.24	 1	 1	 0	 345	 1	 1.1	 0.9;
	 10	 2	 0	 0	 0	 0	 1	 1	 0	 345	 1	 1.1	 0.9;
	 11	 1	 0	 0	 0	 31.41	 1	 1	 0	 345	 1	 1.1	 0.9;
	 12	 1	 0	 0	 0	 83.61	 1	 1	 0	 500	 1	 1.1	 0.9;
	 13	 1	 0	 0	 0	 70	 1	 1	 0	 500	 1	 1.1	 0.9;
	 14	 1	 0	 0	 0	 0	 1	 1	 0	 500	 1	 1.1	 0.9;
	 15	 2	 16.14	 40	 0	 0	 1	 1	 0	 500	 1	 1.1	 0.9;
	 16	 2	 7.34	 10	 0	 0	 1	 1	 0	 500	 1	 1.1	 0.9;
	 17	 1	 77.36	 60.23	 0	 0	 1	 1	 0	 345	 1	 1.1	 0.9;
	 18	 1	 10.17	 3.11	 0	 0	 1	 1	 0	 138	 1	 1.1	 0.9;
	 19	 2	 21.5	 1	 0	 0	 1	 1	 0	 138	 1	 1.1	 0.9;
	 20	 2	 11.95	 1.32	 0	 0	 1	 1	 0	 138	 1	 1.1	 0.9;
	 21	 1	 20.8	 4.22	 0	 0	 1	 1	 0	 138	 1	 1.1	 0.9;
	 22	 2	 6.19	 1	 0	 0	 1	 1	 0	 138	 1	 1.1	 0.9;
	 23	 1	 0	 0	 0	 26.67	 1	 1	 0	 138	 1	 1.1	 0.9;
	 24	 1	 0	 0	 0	 48.6	 1	 1	 0	 32	 1	 1.1	 0.9;
	 25	 1	 0	 0	 0	 0	 1	 1	 0	 138	 1	 1.1	 0.9;
	 26	 1	 46.92	 20.83	 0	 0	 1	 1	 0	 138	 1	 1.1	 0.9;
	 27	 1	 7.66	 2.11	 0	 0	 1	 1	 0	 138	 1	 1.1	 0.9;
	 28	 1	 3.83	 1	 0	 0	 1	 1	 0	 138	 1	 1.1	 0.9;
	 29	 2	 0.01	 0.01	 0	 0	 1	 1	 0	 138	 1	 1.1	 0.9;
	 30	 2	 0.01	 0.01	 0	 0	 1	 1	 0	 138	 1	 1.1	 0.9;
	 31	 1	 23	 5.22	 0	 0	 1	 1	 0	 138	 1	 1.1	 0.9;
	 32	 1	 24.63	 4.72	 0	 0	 1	 1	 0	 138	 1	 1.1	 0.9;
	 33	 1	 0	 0	 0	 45	 1	 1	 0	 16	 1	 1.1	 0.9;
	 34	 1	 6.19	 0.5	 0	 0	 1	 1	 0	 138	 1	 1.1	 0.9;
	 35	 1	 14.6	 2.11	 0	 0	 1	 1	 0	 138	 1	 1.1	 0.9;
	 36	 1	 15.92	 1	 0	 0	 1	 1	 0	 138	 1	 1.1	 0.9;
	 37	 2	 21.53	 3.11	 0	 0	 1	 1	 0	 138	 1	 1.1	 0.9;
	 38	 1	 11.07	 1	 0	 0	 1	 1	 0	 138	 1	 1.1	 0.9;
	 39	 1	 3.1	 0.5	 0	 0	 1	 1	 0	 138	 1	 1.1	 0.9;
	 40	 1	 3.1	 0.5	 0	 0	 1	 1	 0	 138	 1	 1.1	 0.9;
	 41	 1	 12.83	 3.11	 0	 0	 1	 1	 0	 138	 1	 1.1	 0.9;
	 42	 1	 8.41	 1	 0	 0	 1	 1	 0	 138	 1	 1.1	 0.9;
	 43	 1	 63.67	 6.25	 0	 0	 1	 1	 0	 138	 1	 1.1	 0.9;
	 44	 2	 13.87	 2.61	 0	 0	 1	 1	 0	 138	 1	 1.1	 0.9;
	 45	 2	 61.69	 12.76	 0	 0	 1	 1	 0	 138	 1	 1.1	 0.9;
	 46	 1	 23	 2.61	 0	 0	 1	 1	 0	 138	 1	 1.1	 0.9;
	 47	 1	 29.19	 6.83	 0	 0	 1	 1	 0	 138	 1	 1.1	 0.9;
	 48	 1	 12.24	 2.71	 0	 0	 1	 1	 0	 138	 1	 1.1	 0.9;
	 49	 2	 24.63	 6.33	 0	 0	 1	 1	 0	 138	 1	 1.1	 0.9;
	 50	 1	 19.29	 1.26	 0	 0	 1	 1	 0	 138	 1	 1.1	 0.9;
	 51	 1	 7.66	 0.5	 0	 0	 1	 1	 0	 138	 1	 1.1	 0.9;
	 52	 1	 0	 0	 0	-16.07	 1	 1	 0	 138	 1	 1.1	 0.9;
	 53	 1	 100.77	 4.97	 0	-2.01	 1	 1	 0	 138	 1	 1.1	 0.9;
	 54	 2	 13.87	 1	 0	-0.93	 1	 1	 0	 138	 1	 1.1	 0.9;
	 55	 1	 12.24	 3.11	 0	 0	 1	 1	 0	 138	 1	 1.1	 0.9;
	 56	 1	 0	 0	 0	 0	 1	 1	 0	 138	 1	 1.1	 0.9;
	 57	 1	 28.12	 2.01	 0	 0	 1	 1	 0	 138	 1	 1.1	 0.9;
	 58	 2	 44.68	 4.22	 0	 0	 1	 1	 0	 138	 1	 1.1	 0.9;
	 59	 1	 27.72	 4.72	 0	 0	 1	 1	 0	 138	 1	 1.1	 0.9;
	 60	 2	 16.95	 1	 0	 0	 1	 1	 0	 138	 1	 1.1	 0.9;
	 61	 1	 26.1	 4.22	 0	 0	 1	 1	 0	 138	 1	 1.1	 0.9;
	 62	 1	 0	 0	 0	 0	 1	 1	 0	 138	 1	 1.1	 0.9;
	 63	 1	 0	 0	 0	-15.19	 1	 1	 0	 138	 1	 1.1	 0.9;
	 64	 1	 0	 0	 0	-14.11	 1	 1	 0	 138	 1	 1.1	 0.9;
	 65	 1	 0	 0	 0	 0	 1	 1	 0	 500	 1	 1.1	 0.9;
	 66	 1	 0	 0	 0	 30.47	 2	 1	 0	 345	 2	 1.1	 0.9;
	 67	 1	 0	 0	 0	-20	 2	 1	 0	 345	 2	 1.1	 0.9;
	 68	 2	 0	 0	 0	 62.48	 2	 1	 0	 500	 2	 1.1	 0.9;
	 69	 2	 0	 0	 0	 0	 2	 1	 0	 500	 2	 1.1	 0.9;
	 70	 1	 47.66	 85.89	 0	 0	 2	 1	 0	 500	 2	 1.1	 0.9;
	 71	 1	 0	 0	 0	 0	 2	 1	 0	 500	 2	 1.1	 0.9;
	 72	 1	 0	 0	 0	 0	 2	 1	 0	 345	 2	 1.1	 0.9;
	 73	 1	 0	 0	 0	 0	 2	 1	 0	 345	 2	 1.1	 0.9;
	 74	 2	 0	 0	 0	-84.68	 2	 1	 0	 345	 2	 1.1	 0.9;
	 75	 2	 0	 0	 0	 0	 2	 1	 0	 345	 2	 1.1	 0.9;
	 76	 1	 62.88	 29.61	 0	 0	 2	 1	 0	 345	 2	 1.1	 0.9;
	 77	 1	 0	 0	 0	 83.62	 2	 1	 0	 500	 2	 1.1	 0.9;
	 78	 1	 0	 0	 0	 70	 2	 1	 0	 500	 2	 1.1	 0.9;
	 79	 1	 0	 0	 0	 0	 2	 1	 0	 500	 2	 1.1	 0.9;
	 80	 2	 16.14	 40	 0	 0	 2	 1	 0	 500	 2	 1.1	 0.9;
	 81	 2	 7.34	 10	 0	 0	 2	 1	 0	 500	 2	 1.1	 0.9;
	 82	 1	 77.36	 60.23	 0	 0	 2	 1	 0	 345	 2	 1.1	 0.9;
	 83	 1	 10.17	 3.11	 0	 0	 2	 1	 0	 138	 2	 1.1	 0.9;
	 84	 2	 21.5	 1	 0	 0	 2	 1	 0	 138	 2	 1.1	 0.9;
	 85	 2	 11.95	 1.32	 0	 0	 2	 1	 0	 138	 2	 1.1	 0.9;
	 86	 1	 20.8	 4.22	 0	 0	 2	 1	 0	 138	 2	 1.1	 0.9;
	 87	 2	 6.19	 1	 0	 0	 2	 1	 0	 138	 2	 1.1	 0.9;
	 88	 1	 90.25	 28.47	 0	 0	 2	 1	 0	 138	 2	 1.1	 0.9;
	 89	 1	 0	 0	 0	 48.6	 2	 1	 0	 32	 2	 1.1	 0.9;
	 90	 1	 0	 0	 0	 0	 2	 1	 0	 138	 2	 1.1	 0.9;
	 91	 1	 5.8	 20.83	 0	 0	 2	 1	 0	 138	 2	 1.1	 0.9;
	 92	 1	 7.66	 2.11	 0	 0	 2	 1	 0	 138	 2	 1.1	 0.9;
	 93	 1	 3.83	 1	 0	 0	 2	 1	 0	 138	 2	 1.1	 0.9;
	 94	 2	 0.01	 0.01	 0	 0	 2	 1	 0	 138	 2	 1.1	 0.9;
	 95	 2	 0.01	 0.01	 0	 0	 2	 1	 0	 138	 2	 1.1	 0.9;
	 96	 1	 23	 5.22	 0	 0	 2	 1	 0	 138	 2	 1.1	 0.9;
	 97	 1	 24.63	 4.72	 0	 0	 2	 1	 0	 138	 2	 1.1	 0.9;
	 98	 1	 0	 0	 0	 45	 2	 1	 0	 16	 2	 1.1	 0.9;
	 99	 1	 6.19	 0.5	 0	 0	 2	 1	 0	 138	 2	 1.1	 0.9;
	 100	 1	 14.6	 2.11	 0	 0	 2	 1	 0	 138	 2	 1.1	 0.9;
	 101	 1	 15.92	 1	 0	 0	 2	 1	 0	 138	 2	 1.1	 0.9;
	 102	 2	 21.53	 3.11	 0	 0	 2	 1	 0	 138	 2	 1.1	 0.9;
	 103	 1	 11.07	 1	 0	 0	 2	 1	 0	 138	 2	 1.1	 0.9;
	 104	 1	 3.1	 0.5	 0	 0	 2	 1	 0	 138	 2	 1.1	 0.9;
	 105	 1	 3.1	 0.5	 0	 0	 2	 1	 0	 138	 2	 1.1	 0.9;
	 106	 1	 12.83	 3.11	 0	 0	 2	 1	 0	 138	 2	 1.1	 0.9;
	 107	 1	 8.41	 1	 0	 0	 2	 1	 0	 138	 2	 1.1	 0.9;
	 108	 1	 63.27	 6.25	 0	 0	 2	 1	 0	 138	 2	 1.1	 0.9;
	 109	 2	 13.87	 2.61	 0	 0	 2	 1	 0	 138	 2	 1.1	 0.9;
	 110	 2	 61.69	 12.76	 0	 0	 2	 1	 0	 138	 2	 1.1	 0.9;
	 111	 1	 23	 2.61	 0	 0	 2	 1	 0	 138	 2	 1.1	 0.9;
	 112	 1	 29.19	 6.83	 0	 0	 2	 1	 0	 138	 2	 1.1	 0.9;
	 113	 1	 12.24	 2.71	 0	 0	 2	 1	 0	 138	 2	 1.1	 0.9;
	 114	 2	 24.63	 6.33	 0	 0	 2	 1	 0	 138	 2	 1.1	 0.9;
	 115	 1	 19.29	 1.26	 0	 0	 2	 1	 0	 138	 2	 1.1	 0.9;
	 116	 1	 7.66	 0.5	 0	 0	 2	 1	 0	 138	 2	 1.1	 0.9;
	 117	 1	 0	 0	 0	-16.07	 2	 1	 0	 138	 2	 1.1	 0.9;
	 118	 1	 100.77	 4.97	 0	-2.01	 2	 1	 0	 138	 2	 1.1	 0.9;
	 119	 2	 13.87	 1	 0	 1.92	 2	 1	 0	 138	 2	 1.1	 0.9;
	 120	 1	 12.24	 3.11	 0	 0	 2	 1	 0	 138	 2	 1.1	 0.9;
	 121	 1	 0	 0	 0	 0	 2	 1	 0	 138	 2	 1.1	 0.9;
	 122	 1	 28.12	 2.01	 0	 0	 2	 1	 0	 138	 2	 1.1	 0.9;
	 123	 2	 44.68	 4.22	 0	 0	 2	 1	 0	 138	 2	 1.1	 0.9;
	 124	 1	 27.72	 4.72	 0	 0	 2	 1	 0	 138	 2	 1.1	 0.9;
	 125	 2	 16.95	 1	 0	 0	 2	 1	 0	 138	 2	 1.1	 0.9;
	 126	 1	 26.1	 4.22	 0	 0	 2	 1	 0	 138	 2	 1.1	 0.9;
	 127	 1	 0	 0	 0	 0	 2	 1	 0	 138	 2	 1.1	 0.9;
	 128	 1	 0	 0	 0	-15.19	 2	 1	 0	 138	 2	 1.1	 0.9;
	 129	 1	 0	 0	 0	-14.11	 2	 1	 0	 138	 2	 1.1	 0.9;
	 130	 1	 0	 0	 0	 0	 2	 1	 0	 500	 2	 1.1	 0.9;
	 131	 1	 47.3	 53.02	 0	 0	 4	 1	 0	 345	 4	 1.1	 0.9;
	 132	 2	 16.97	 0.01	 0	-8.53	 4	 1	 0	 138	 4	 1.1	 0.9;
	 133	 1	 0	 0	 0	 0	 4	 1	 0	 138	 4	 1.1	 0.9;
	 134	 1	 71.61	 0.5	 0	 0	 4	 1	 0	 138	 4	 1.1	 0.9;
	 135	 1	 24.8	 2.09	 0	 0	 4	 1	 0	 138	 4	 1.1	 0.9;
	 136	 2	 19.17	 3.11	 0	 0	 4	 1	 0	 138	 4	 1.1	 0.9;
	 137	 2	 0.01	 0	 0	 0	 4	 1	 0	 138	 4	 1.1	 0.9;
	 138	 1	 40.67	 2.12	 0	 0	 4	 1	 0	 138	 4	 1.1	 0.9;
	 139	 1	 0	 0	 0	 0	 7	 1	 0	 138	 7	 1.1	 0.9;
	 140	 1	 6.28	 1.58	 0	 0	 7	 1	 0	 138	 7	 1.1	 0.9;
	 141	 1	 8.04	 2.3	 0	 0	 7	 1	 0	 138	 7	 1.1	 0.9;
	 142	 1	 0	 0	 0	 0	 7	 1	 0	 138	 7	 1.1	 0.9;
	 143	 1	 9.76	-13.59	 0	 0	 7	 1	 0	 138	 7	 1.1	 0.9;
	 144	 1	 2.74	 0.8	 0	 0	 7	 1	 0	 138	 7	 1.1	 0.9;
	 145	 1	 4.9	 1.42	 0	 0	 7	 1	 0	 138	 7	 1.1	 0.9;
	 146	 1	 19.84	 5.03	 0	 0	 7	 1	 0	 138	 7	 1.1	 0.9;
	 147	 1	 0	 0	 0	 0	 7	 1	 0	 138	 7	 1.1	 0.9;
	 148	 1	 0	 0	 0	 0	 7	 1	 0	 138	 7	 1.1	 0.9;
	 149	 1	 0	 0	 0	 0	 7	 1	 0	 138	 7	 1.1	 0.9;
	 150	 1	 1.47	 0.38	 0	 0	 7	 1	 0	 138	 7	 1.1	 0.9;
	 151	 1	 6.59	 3.11	 0	 0	 7	 1	 0	 138	 7	 1.1	 0.9;
	 152	 1	 0	 0	 0	 0	 7	 1	 0	 138	 7	 1.1	 0.9;
	 153	 2	 117.42	 39	 0	 0	 7	 1	 0	 138	 7	 1.1	 0.9;
	 154	 1	 38.75	-9.25	 0	 0	 7	 1	 0	 138	 7	 1.1	 0.9;
	 155	 1	 0.63	 0.1	 0	 0	 7	 1	 0	 138	 7	 1.1	 0.9;
	 156	 1	 0	 0	 0	 0	 7	 1	 0	 138	 7	 1.1	 0.9;
	 157	 1	 4.08	 1.66	 0	 0	 7	 1	 0	 138	 7	 1.1	 0.9;
	 158	 1	 8.56	 0.67	 0	 0	 7	 1	 0	 138	 7	 1.1	 0.9;
	 159	 1	 2.35	 0.4	 0	 0	 7	 1	 0	 138	 7	 1.1	 0.9;
	 160	 1	 1.57	 0.49	 0	 0	 7	 1	 0	 138	 7	 1.1	 0.9;
	 161	 2	 27.75	 30.21	 0	-0.34	 7	 1	 0	 138	 7	 1.1	 0.9;
	 162	 1	 0	 0	 0	 0	 7	 1	 0	 138	 7	 1.1	 0.9;
	 163	 2	 0	 0	 0	 37.87	 7	 1	 0	 138	 7	 1.1	 0.9;
	 164	 1	 4.32	 1.25	 0	 0	 7	 1	 0	 138	 7	 1.1	 0.9;
	 165	 1	 0	 0	 0	 0	 7	 1	 0	 138	 7	 1.1	 0.9;
	 166	 2	 21.36	 0.55	 0	-5.22	 7	 1	 0	 138	 7	 1.1	 0.9;
	 167	 1	 16.48	 2.66	 0	 0	 7	 1	 0	 138	 7	 1.1	 0.9;
	 168	 1	 1.25	 0.08	 0	 0	 7	 1	 0	 138	 7	 1.1	 0.9;
	 169	 1	 0	 0	 0	 0	 7	 1	 0	 138	 7	 1.1	 0.9;
	 170	 1	 0.97	 0.39	 0	 0	 7	 1	 0	 138	 7	 1.1	 0.9;
	 171	 1	 0.78	 0.31	 0	 0	 7	 1	 0	 138	 7	 1.1	 0.9;
	 172	 1	 3.77	 0.93	 0	 0	 7	 1	 0	 138	 7	 1.1	 0.9;
	 173	 1	 0	 0	 0	 0	 7	 1	 0	 138	 7	 1.1	 0.9;
	 174	 1	 7.85	 0.76	 0	 0	 7	 1	 0	 138	 7	 1.1	 0.9;
	 175	 1	 0	 0	 0	 0	 7	 1	 0	 138	 7	 1.1	 0.9;
	 176	 1	 10.66	 2.71	 0	 0	 7	 1	 0	 138	 7	 1.1	 0.9;
	 177	 1	 0	 0	 0	 0	 7	 1	 0	 138	 7	 1.1	 0.9;
	 178	 1	 8.79	 2.06	 0	 0	 7	 1	 0	 138	 7	 1.1	 0.9;
	 179	 1	 0	 0	 0	 0	 7	 1	 0	 138	 7	 1.1	 0.9;
	 180	 1	 6.66	 1.89	 0	 0	 7	 1	 0	 138	 7	 1.1	 0.9;
	 181	 1	 6.28	 1.79	 0	 0	 7	 1	 0	 138	 7	 1.1	 0.9;
	 182	 1	 0	 0	 0	 0	 7	 1	 0	 138	 7	 1.1	 0.9;
	 183	 1	 1.1	 0.37	 0	 0	 7	 1	 0	 138	 7	 1.1	 0.9;
	 184	 1	 1.88	 0.58	 0	 0	 7	 1	 0	 138	 7	 1.1	 0.9;
	 185	 2	 0	 0	 0	 0	 7	 1	 0	 138	 7	 1.1	 0.9;
	 186	 1	 0	 0.1	 0	 0	 7	 1	 0	 138	 7	 1.1	 0.9;
	 187	 1	 7.79	 1.48	 0	 0	 7	 1	 0	 138	 7	 1.1	 0.9;
	 188	 1	 10.89	 2.01	 0	 0	 7	 1	 0	 138	 7	 1.1	 0.9;
	 189	 1	 3.16	 0.56	 0	 0	 7	 1	 0	 138	 7	 1.1	 0.9;
	 190	 1	 0	 0	 0	 0	 7	 1	 0	 138	 7	 1.1	 0.9;
	 191	 1	 17.35	 4.66	 0	 0	 7	 1	 0	 138	 7	 1.1	 0.9;
	 192	 1	 16.45	 4.84	 0	 0	 7	 1	 0	 138	 7	 1.1	 0.9;
	 193	 1	 6.06	 1.7	 0	 0	 7	 1	 0	 138	 7	 1.1	 0.9;
	 194	 1	 3.77	 1.04	 0	 0	 7	 1	 0	 138	 7	 1.1	 0.9;
	 195	 1	 34.37	-1.69	 0	 0	 7	 1	 0	 138	 7	 1.1	 0.9;
];

mpc_regionR1.gen = [
%	bus         Pg          Qg          Qmax        Qmin        Vg          mBase       status      Pmax        Pmin        Pc1         Pc2         Qc1min      Qc1max      Qc2min      Qc2max      ramp_agc    ramp_10     ramp_30     ramp_q      apf         
	 3	 0	 0	 78	-78	 1	 100	 0	 156	 61.48	 0	 0	 0	 0	 0	 0	 0	 0	 0	 0	 137.955;
	 4	 243.545	-34.935	 279.47	-349.34	 1	 100	 1	 401	 86.09	 0	 0	 0	 0	 0	 0	 0	 0	 0	 0	 281.739;
	 9	 0	 0	 33.33	-33.33	 1	 100	 0	 43	 35.125	 0	 0	 0	 0	 0	 0	 0	 0	 0	 0	 85.248;
	 10	 161.875	 0	 138	-138	 1	 100	 1	 275	 48.75	 0	 0	 0	 0	 0	 0	 0	 0	 0	 0	 221.788;
	 15	-82	 21.5	 105	-62	 1	 216.55	 1	 36	-200	 0	 0	 0	 0	 0	 0	 0	 0	 0	 0	 179;
	 15	-84	 21.5	 105	-62	 1	 179	 1	 32	-200	 0	 0	 0	 0	 0	 0	 0	 0	 0	 0	 179;
	 15	-74.5	 27.5	 130	-75	 1	 179	 1	 51	-200	 0	 0	 0	 0	 0	 0	 0	 0	 0	 0	 179;
	 16	-93	 30	 160	-100	 1	 179	 1	 14	-200	 0	 0	 0	 0	 0	 0	 0	 0	 0	 0	 179;
	 19	 238.5	 0	 232	-232	 1	 58.99	 1	 464	 13	 0	 0	 0	 0	 0	 0	 0	 0	 0	 0	 55;
	 20	 0	 0	 64	-64	 1	 55	 0	 128	 13	 0	 0	 0	 0	 0	 0	 0	 0	 0	 0	 55;
	 22	 13	 2	 184	-180	 1	 0.36	 1	 26	 0	 0	 0	 0	 0	 0	 0	 0	 0	 0	 0	 285;
	 29	 36	 0.5	 178	-177	 1	 18	 1	 72	 0	 0	 0	 0	 0	 0	 0	 0	 0	 0	 0	 18;
	 30	 33	-0.5	 179	-180	 1	 22	 1	 66	 0	 0	 0	 0	 0	 0	 0	 0	 0	 0	 0	 22;
	 37	 25	 9	 186	-168	 1	 0.24	 1	 50	 0	 0	 0	 0	 0	 0	 0	 0	 0	 0	 0	 296;
	 44	 54.25	 4.5	 178	-169	 1	 2	 1	 108	 0.5	 0	 0	 0	 0	 0	 0	 0	 0	 0	 0	 269;
	 45	 48.5	 11	 188	-166	 1	 15	 1	 97	 0	 0	 0	 0	 0	 0	 0	 0	 0	 0	 0	 15;
	 49	 34.5	 5.5	 191	-180	 1	 1	 1	 69	 0	 0	 0	 0	 0	 0	 0	 0	 0	 0	 0	 285;
	 54	 12	 10	 189	-169	 1	 0.12	 1	 24	 0	 0	 0	 0	 0	 0	 0	 0	 0	 0	 0	 258;
	 54	 0	 0	 64	-64	 1	 100	 0	 128	 9.72	 0	 0	 0	 0	 0	 0	 0	 0	 0	 0	 34.44;
	 58	 31.5	 9	 198	-180	 1	 9	 1	 63	 0	 0	 0	 0	 0	 0	 0	 0	 0	 0	 0	 297;
	 60	 40	-2.5	 179	-184	 1	 0.24	 1	 80	 0	 0	 0	 0	 0	 0	 0	 0	 0	 0	 0	 278;
	 68	 0	 0	 33.33	-33.33	 1	 100	 0	 122.96	 51	 0	 0	 0	 0	 0	 0	 0	 0	 0	 0	 137.955;
	 69	 194.545	-35.27	 282.12	-352.66	 1	 100	 1	 303	 86.09	 0	 0	 0	 0	 0	 0	 0	 0	 0	 0	 281.739;
	 74	 0	 0	 33.33	-33.33	 1	 100	 0	 70.25	 20	 0	 0	 0	 0	 0	 0	 0	 0	 0	 0	 85.248;
	 75	 228.52	 0	 209	-209	 1	 100	 1	 418	 39.04	 0	 0	 0	 0	 0	 0	 0	 0	 0	 0	 221.788;
	 80	-77.5	 21.5	 105	-62	 1	 216.55	 1	 45	-200	 0	 0	 0	 0	 0	 0	 0	 0	 0	 0	 179;
	 80	-72.5	 21.5	 105	-62	 1	 179	 1	 55	-200	 0	 0	 0	 0	 0	 0	 0	 0	 0	 0	 179;
	 80	-90	 27.5	 130	-75	 1	 179	 1	 20	-200	 0	 0	 0	 0	 0	 0	 0	 0	 0	 0	 179;
	 81	-89.5	 30	 160	-100	 1	 179	 1	 21	-200	 0	 0	 0	 0	 0	 0	 0	 0	 0	 0	 179;
	 84	 160.5	-10.5	 154	-175	 1	 58.99	 1	 308	 13	 0	 0	 0	 0	 0	 0	 0	 0	 0	 0	 55;
	 85	 0	 0	 18.33	-18.33	 1	 55	 0	 26	 3	 0	 0	 0	 0	 0	 0	 0	 0	 0	 0	 55;
	 87	 27	 9.5	 197	-178	 1	 0.36	 1	 54	 0	 0	 0	 0	 0	 0	 0	 0	 0	 0	 0	 256;
	 94	 35.5	 4.5	 179	-170	 1	 18	 1	 71	 0	 0	 0	 0	 0	 0	 0	 0	 0	 0	 0	 18;
	 95	 25	 7.5	 199	-184	 1	 22	 1	 50	 0	 0	 0	 0	 0	 0	 0	 0	 0	 0	 0	 22;
	 102	 20	 8	 182	-166	 1	 0.24	 1	 40	 0	 0	 0	 0	 0	 0	 0	 0	 0	 0	 0	 268;
	 109	 32.75	 3.5	 191	-184	 1	 2	 1	 65	 0.5	 0	 0	 0	 0	 0	 0	 0	 0	 0	 0	 268;
	 110	 183.5	 3.5	 191	-184	 1	 15	 1	 367	 0	 0	 0	 0	 0	 0	 0	 0	 0	 0	 0	 15;
	 114	 86.5	 6	 183	-171	 1	 1	 1	 173	 0	 0	 0	 0	 0	 0	 0	 0	 0	 0	 0	 298;
	 119	 71	 12.5	 192	-167	 1	 0.12	 1	 142	 0	 0	 0	 0	 0	 0	 0	 0	 0	 0	 0	 283;
	 119	 0	 0	 33.33	-33.33	 1	 100	 0	 43	 9.72	 0	 0	 0	 0	 0	 0	 0	 0	 0	 0	 34.44;
	 123	 93.5	 14	 200	-172	 1	 9	 1	 187	 0	 0	 0	 0	 0	 0	 0	 0	 0	 0	 0	 264;
	 125	 20	 14.5	 196	-167	 1	 0.24	 1	 40	 0	 0	 0	 0	 0	 0	 0	 0	 0	 0	 0	 253;
	 132	 44	 7.5	 192	-177	 1	 26	 1	 88	 0	 0	 0	 0	 0	 0	 0	 0	 0	 0	 0	 26;
	 132	 0	 0	 76	-76	 1	 100	 0	 151	 0.135	 0	 0	 0	 0	 0	 0	 0	 0	 0	 0	 273;
	 136	 108.5	 13.5	 198	-171	 1	 2	 1	 217	 0	 0	 0	 0	 0	 0	 0	 0	 0	 0	 0	 261;
	 137	 62.5	 8	 188	-172	 1	 50	 1	 125	 0	 0	 0	 0	 0	 0	 0	 0	 0	 0	 0	 50;
	 153	 0	 0	 20	-20	 1	 25	 0	 39	 5	 0	 0	 0	 0	 0	 0	 0	 0	 0	 0	 25;
	 153	 0	 0	 68	-68	 1	 25	 0	 135	 5	 0	 0	 0	 0	 0	 0	 0	 0	 0	 0	 25;
	 153	 38.5	 5.5	 179	-168	 1	 30	 1	 72	 5	 0	 0	 0	 0	 0	 0	 0	 0	 0	 0	 31.25;
	 153	 155	 5	 192	-182	 1	 25	 1	 305	 5	 0	 0	 0	 0	 0	 0	 0	 0	 0	 0	 25;
	 161	 104.5	 0	 87	-87	 1	 120	 1	 174	 35	 0	 0	 0	 0	 0	 0	 0	 0	 0	 0	 120;
	 161	 71.5825	 8	 73	-57	 1	 120	 1	 114	 29.165	 0	 0	 0	 0	 0	 0	 0	 0	 0	 0	 120;
	 163	 0	 0	 33.33	-33.33	 1	 100	 0	 47.47	 2	 0	 0	 0	 0	 0	 0	 0	 0	 0	 0	 62.466;
	 166	 0	 0	 88	-88	 1	 100	 0	 175	 4.135	 0	 0	 0	 0	 0	 0	 0	 0	 0	 0	 259;
	 185	 132.16	 0	 132	-132	 1	 100	 1	 263	 1.32	 0	 0	 0	 0	 0	 0	 0	 0	 0	 0	 79.663;
];

mpc_regionR1.branch = [
%	fbus        tbus        r           x           b           rateA       rateB       rateC       ratio       angle       status      angmin      angmax      
	 1	 10	 0.00186	 0.02155	 0.05317	 461	 461	 461	 0	 0	 1	-30	 30;
	 2	 3	 0.00051	 0.0275	 0	 400	 400	 400	 1.07702	 0	 1	-30	 30;
	 2	 17	 0.00568	 0.04215	 0.0716	 317	 317	 317	 0	 0	 1	-30	 30;
	 3	 14	 0.00131	 0.01547	 0.41152	 838	 838	 838	 0	 0	 1	-30	 30;
	 3	 70	 0.0001	 0.01	 0	 158.96	 190.75	 238.44	 0	 0	 1	-30	 30;
	 4	 5	 1e-05	 6e-05	 0	 1593	 1593	 1593	 0	 0	 1	-30	 30;
	 6	 4	 0.00084	 0.06858	 0	 250	 250	 250	 0.9999	 0	 1	-30	 30;
	 4	 65	 0.00033	 0.00388	 0.10475	 831	 831	 831	 0	 0	 1	-30	 30;
	 4	 77	 0.0001	 0.01	 0	 126.64	 151.97	 189.97	 0	 0	 1	-30	 30;
	 5	 12	 0.0024	 0.02795	 0.75408	 838	 838	 838	 0	 0	 1	-30	 30;
	 5	 16	 0.00133	 0.01553	 0.41898	 831	 831	 831	 0	 0	 1	-30	 30;
	 5	 68	 0.0001	 0.01	 0	 149.53	 179.43	 224.29	 0	 0	 1	-30	 30;
	 23	 6	 0.00044	-0.00422	 0	 250	 250	 250	 1.06772	 0	 1	-30	 30;
	 24	 6	 0.00496	 0.06982	 0	 64.99	 84.49	 84.49	 0.98438	 0	 1	-30	 30;
	 7	 8	 2e-05	 0.00021	 0	 876	 876	 876	 0	 0	 1	-30	 30;
	 7	 10	 0.02738	 0.14254	 0.20047	 222	 222	 222	 0	 0	 1	-30	 30;
	 25	 7	 0.00015	 0.06524	 0	 160	 160	 160	 1.07325	 0	 1	-30	 30;
	 8	 17	 0.01909	 0.11277	 0.16673	 197	 197	 197	 0	 0	 1	-30	 30;
	 26	 8	 0.00027	 0.06715	 0	 160	 160	 160	 1.08282	 0	 1	-30	 30;
	 9	 10	 2e-05	 0.00021	 0	 876	 876	 876	 0	 0	 1	-30	 30;
	 9	 76	 0.0001	 0.01	 0	 83.7	 98.6	 125.55	 0	 0	 1	-30	 30;
	 11	 10	 0.00076	 0.0789	 0	 243.53	 316.58	 316.58	 0.9999	 0	 1	-30	 30;
	 10	 66	 0.0001	 0.01	 0	 83.7	 98.6	 125.55	 0	 0	 1	-30	 30;
	 33	 11	-0.00017	 0.16709	 0	 260	 312	 390	 0.94157	 0	 1	-30	 30;
	 11	 75	 0.0001	 0.01	 0	 83.7	 98.6	 125.55	 0	 0	 1	-30	 30;
	 12	 69	 0.0001	 0.01	 0	 129.32	 155.19	 193.98	 0	 0	 1	-30	 30;
	 13	 14	 1e-05	 6e-05	 0	 1593	 1593	 1593	 0	 0	 1	-30	 30;
	 13	 15	 0.0015	 0.01768	 0.46944	 831	 831	 831	 0	 0	 1	-30	 30;
	 52	 13	 0.00059	 0.04206	 0	 330	 330	 330	 1.04877	 0	 1	-30	 30;
	 15	 16	 1e-05	 6e-05	 0	 1593	 1593	 1593	 0	 0	 1	-30	 30;
	 63	 15	 0.00137	 0.05969	 0	 250	 250	 250	 1.05449	 0	 1	-30	 30;
	 64	 15	 0.00137	 0.05969	 0	 250	 250	 250	 1.05312	 0	 1	-30	 30;
	 15	 65	 0.001	 0.01165	 0.31426	 831	 831	 831	 0	 0	 1	-30	 30;
	 18	 37	 0.021	 0.0679	 0.00696	 101	 101	 101	 0	 0	 1	-30	 30;
	 18	 63	 0.02139	 0.06954	 0.00729	 120	 120	 120	 0	 0	 1	-30	 30;
	 19	 20	 8e-05	 0.00083	 0	 438	 438	 438	 0	 0	 1	-30	 30;
	 19	 25	 0.03025	 0.09752	 0.01002	 86	 86	 86	 0	 0	 1	-30	 30;
	 19	 28	 0.00983	 0.01736	 0.0016	 137	 137	 137	 0	 0	 1	-30	 30;
	 19	 63	 0.03669	 0.11818	 0.01217	 123	 123	 123	 0	 0	 1	-30	 30;
	 20	 42	 0.00711	 0.02314	 0.00234	 124	 124	 124	 0	 0	 1	-30	 30;
	 20	 48	 0.00331	 0.01074	 0.00109	 137	 137	 137	 0	 0	 1	-30	 30;
	 21	 25	 0.01116	 0.01529	 0.00275	 114	 114	 114	 0	 0	 1	-30	 30;
	 21	 40	 0.01116	 0.01529	 0.00275	 114	 114	 114	 0	 0	 1	-30	 30;
	 22	 37	 0.0405	 0.07107	 0.00673	 59.55	 71.46	 89.33	 0	 0	 1	-30	 30;
	 22	 51	 0.04628	 0.07107	 0.0076	 67.92	 81.51	 101.88	 0	 0	 1	-30	 30;
	 23	 39	 0.00124	 0.00413	 0.00039	 128	 128	 128	 0	 0	 1	-30	 30;
	 23	 43	 0.00793	 0.02231	 0.00215	 123	 123	 123	 0	 0	 1	-30	 30;
	 23	 45	 0.00124	 0.00413	 0.00041	 170.12	 204.15	 255.18	 0	 0	 1	-30	 30;
	 23	 185	 0.0001	 0.01	 0	 229.86	 275.83	 344.79	 0	 0	 1	-30	 30;
	 25	 49	 0.00124	 0.00413	 0.00039	 128	 128	 128	 0	 0	 1	-30	 30;
	 25	 61	 0.01977	 0.06457	 0.00658	 123	 123	 123	 0	 0	 1	-30	 30;
	 25	 62	 0.00218	 0.00712	 0.00073	 123	 123	 123	 0	 0	 1	-30	 30;
	 26	 35	 0.0065	 0.02121	 0.00216	 123	 123	 123	 0	 0	 1	-30	 30;
	 26	 119	 0.0001	 0.01	 0	 170.58	 204.7	 255.87	 0	 0	 1	-30	 30;
	 27	 28	 8e-05	 0.00083	 0	 438	 438	 438	 0	 0	 1	-30	 30;
	 27	 32	 0.00124	 0.00413	 0.00039	 128	 128	 128	 0	 0	 1	-30	 30;
	 27	 56	 0.00099	 0.00347	 0.00036	 137	 137	 137	 0	 0	 1	-30	 30;
	 27	 61	 0.01083	 0.03471	 0.00358	 137	 137	 137	 0	 0	 1	-30	 30;
	 28	 31	 0.00496	 0.01273	 0.00128	 95	 95	 95	 0	 0	 1	-30	 30;
	 28	 55	 0.00124	 0.00413	 0.00039	 128	 128	 128	 0	 0	 1	-30	 30;
	 29	 30	 0.00142	 0.00465	 0.00047	 123	 123	 123	 0	 0	 1	-30	 30;
	 29	 58	 0.00408	 0.01332	 0.00136	 123	 123	 123	 0	 0	 1	-30	 30;
	 30	 64	 0.01705	 0.05552	 0.00567	 137	 137	 137	 0	 0	 1	-30	 30;
	 31	 46	 0.00372	 0.00934	 0.00094	 120	 120	 120	 0	 0	 1	-30	 30;
	 32	 55	 0.00124	 0.00413	 0.00039	 128	 128	 128	 0	 0	 1	-30	 30;
	 34	 62	 0.00133	 0.00434	 0.00044	 123	 123	 123	 0	 0	 1	-30	 30;
	 36	 42	 0.00289	 0.00926	 0.00094	 137	 137	 137	 0	 0	 1	-30	 30;
	 36	 56	 0.00207	 0.00694	 0.0007	 137	 137	 137	 0	 0	 1	-30	 30;
	 37	 38	 0.00413	 0.01372	 0.00138	 62	 62	 62	 0	 0	 1	-30	 30;
	 38	 60	 0.03438	 0.06099	 0.00569	 62	 62	 62	 0	 0	 1	-30	 30;
	 39	 40	 8e-05	 0.00083	 0	 438	 438	 438	 0	 0	 1	-30	 30;
	 39	 41	 0.00124	 0.00413	 0.00039	 128	 128	 128	 0	 0	 1	-30	 30;
	 40	 41	 0.00124	 0.00413	 0.00039	 128	 128	 128	 0	 0	 1	-30	 30;
	 44	 60	 0.0395	 0.1281	 0.01314	 62	 62	 62	 0	 0	 1	-30	 30;
	 44	 64	 0.00165	 0.00496	 0.00053	 137	 137	 137	 0	 0	 1	-30	 30;
	 46	 62	 0.0235	 0.07683	 0.00783	 123	 123	 123	 0	 0	 1	-30	 30;
	 47	 48	 0.00645	 0.02066	 0.00213	 137	 137	 137	 0	 0	 1	-30	 30;
	 47	 58	 0.04174	 0.07322	 0.00692	 90	 90	 90	 0	 0	 1	-30	 30;
	 47	 59	 0.01132	 0.03636	 0.00375	 137	 137	 137	 0	 0	 1	-30	 30;
	 50	 52	 0.04351	 0.09356	 0.00962	 54.76	 71.18	 71.18	 0	 0	 1	-30	 30;
	 51	 54	 0.01653	 0.03306	 0.00242	 62.58	 75.1	 93.87	 0	 0	 1	-30	 30;
	 52	 53	 8e-05	 0.00083	 0	 438	 438	 438	 0	 0	 1	-30	 30;
	 52	 57	 0.02394	 0.04718	 0.00469	 58.83	 76.48	 76.48	 0	 0	 1	-30	 30;
	 54	 143	 0.0001	 0.01	 0	 193.33	 231.99	 289.99	 0	 0	 1	-30	 30;
	 59	 63	 0.01721	 0.05623	 0.00573	 140	 140	 140	 0	 0	 1	-30	 30;
	 63	 64	 8e-05	 0.00083	 0	 438	 438	 438	 0	 0	 1	-30	 30;
	 66	 75	 0.00186	 0.02155	 0.05317	 461	 461	 461	 0	 0	 1	-30	 30;
	 67	 68	 0.00051	 0.0275	 0	 400	 400	 400	 1.07702	 0	 1	-30	 30;
	 67	 82	 0.00568	 0.04215	 0.0716	 317	 317	 317	 0	 0	 1	-30	 30;
	 68	 79	 0.00131	 0.01547	 0.41152	 838	 838	 838	 0	 0	 1	-30	 30;
	 69	 70	 1e-05	 6e-05	 0	 1593	 1593	 1593	 0	 0	 1	-30	 30;
	 71	 69	 0.00084	 0.06858	 0	 250	 250	 250	 0.9999	 0	 1	-30	 30;
	 69	 130	 0.00033	 0.00388	 0.10475	 831	 831	 831	 0	 0	 1	-30	 30;
	 70	 77	 0.0024	 0.02795	 0.75408	 838	 838	 838	 0	 0	 1	-30	 30;
	 70	 81	 0.00133	 0.01553	 0.41898	 831	 831	 831	 0	 0	 1	-30	 30;
	 88	 71	 0.00044	-0.00422	 0	 250	 250	 250	 1.06772	 0	 1	-30	 30;
	 89	 71	 0.00496	 0.06982	 0	 64.99	 84.49	 84.49	 0.98438	 0	 1	-30	 30;
	 72	 73	 2e-05	 0.00021	 0	 876	 876	 876	 0	 0	 1	-30	 30;
	 72	 75	 0.02738	 0.14254	 0.20047	 222	 222	 222	 0	 0	 1	-30	 30;
	 90	 72	 0.00015	 0.06524	 0	 160	 160	 160	 1.07325	 0	 1	-30	 30;
	 73	 82	 0.01909	 0.11277	 0.16673	 197	 197	 197	 0	 0	 1	-30	 30;
	 91	 73	 0.00027	 0.06715	 0	 160	 160	 160	 1.08282	 0	 1	-30	 30;
	 74	 75	 2e-05	 0.00021	 0	 876	 876	 876	 0	 0	 1	-30	 30;
	 74	 131	 0.0001	 0.01	 0	 269.8	 323.76	 404.7	 0	 0	 1	-30	 30;
	 76	 75	 0.00076	 0.0789	 0	 243.53	 316.58	 316.58	 0.9999	 0	 1	-30	 30;
	 98	 76	-0.00017	 0.16709	 0	 260	 312	 390	 0.94157	 0	 1	-30	 30;
	 78	 79	 1e-05	 6e-05	 0	 1593	 1593	 1593	 0	 0	 1	-30	 30;
	 78	 80	 0.0015	 0.01768	 0.46944	 831	 831	 831	 0	 0	 1	-30	 30;
	 117	 78	 0.00059	 0.04206	 0	 330	 330	 330	 1.04877	 0	 1	-30	 30;
	 80	 81	 1e-05	 6e-05	 0	 1593	 1593	 1593	 0	 0	 1	-30	 30;
	 128	 80	 0.00137	 0.05969	 0	 250	 250	 250	 1.05449	 0	 1	-30	 30;
	 129	 80	 0.00137	 0.05969	 0	 250	 250	 250	 1.05312	 0	 1	-30	 30;
	 80	 130	 0.001	 0.01165	 0.31426	 831	 831	 831	 0	 0	 1	-30	 30;
	 83	 102	 0.021	 0.0679	 0.00696	 101	 101	 101	 0	 0	 1	-30	 30;
	 83	 128	 0.02139	 0.06954	 0.00729	 120	 120	 120	 0	 0	 1	-30	 30;
	 84	 85	 8e-05	 0.00083	 0	 438	 438	 438	 0	 0	 1	-30	 30;
	 84	 90	 0.03025	 0.09752	 0.01002	 86	 86	 86	 0	 0	 1	-30	 30;
	 84	 93	 0.00983	 0.01736	 0.0016	 137	 137	 137	 0	 0	 1	-30	 30;
	 84	 128	 0.03669	 0.11818	 0.01217	 123	 123	 123	 0	 0	 1	-30	 30;
	 85	 107	 0.00711	 0.02314	 0.00234	 124	 124	 124	 0	 0	 1	-30	 30;
	 85	 113	 0.00331	 0.01074	 0.00109	 137	 137	 137	 0	 0	 1	-30	 30;
	 86	 90	 0.01116	 0.01529	 0.00275	 114	 114	 114	 0	 0	 1	-30	 30;
	 86	 105	 0.01116	 0.01529	 0.00275	 114	 114	 114	 0	 0	 1	-30	 30;
	 87	 102	 0.0405	 0.07107	 0.00673	 88.34	 106.01	 132.51	 0	 0	 1	-30	 30;
	 87	 116	 0.04628	 0.07107	 0.0076	 82.01	 98.42	 123.02	 0	 0	 1	-30	 30;
	 88	 104	 0.00124	 0.00413	 0.00039	 128	 128	 128	 0	 0	 1	-30	 30;
	 88	 108	 0.00793	 0.02231	 0.00215	 176.21	 211.46	 264.32	 0	 0	 1	-30	 30;
	 88	 110	 0.00124	 0.00413	 0.00041	 137	 137	 137	 0	 0	 1	-30	 30;
	 90	 114	 0.00124	 0.00413	 0.00039	 128	 128	 128	 0	 0	 1	-30	 30;
	 90	 126	 0.01977	 0.06457	 0.00658	 123	 123	 123	 0	 0	 1	-30	 30;
	 90	 127	 0.00218	 0.00712	 0.00073	 123	 123	 123	 0	 0	 1	-30	 30;
	 91	 100	 0.0065	 0.02121	 0.00216	 123	 123	 123	 0	 0	 1	-30	 30;
	 91	 163	 0.0001	 0.01	 0	 83.7	 98.6	 125.55	 0	 0	 1	-30	 30;
	 92	 93	 8e-05	 0.00083	 0	 438	 438	 438	 0	 0	 1	-30	 30;
	 92	 97	 0.00124	 0.00413	 0.00039	 128	 128	 128	 0	 0	 1	-30	 30;
	 92	 121	 0.00099	 0.00347	 0.00036	 137	 137	 137	 0	 0	 1	-30	 30;
	 92	 126	 0.01083	 0.03471	 0.00358	 137	 137	 137	 0	 0	 1	-30	 30;
	 93	 96	 0.00496	 0.01273	 0.00128	 95	 95	 95	 0	 0	 1	-30	 30;
	 93	 120	 0.00124	 0.00413	 0.00039	 128	 128	 128	 0	 0	 1	-30	 30;
	 94	 95	 0.00142	 0.00465	 0.00047	 123	 123	 123	 0	 0	 1	-30	 30;
	 94	 123	 0.00408	 0.01332	 0.00136	 123	 123	 123	 0	 0	 1	-30	 30;
	 95	 129	 0.01705	 0.05552	 0.00567	 137	 137	 137	 0	 0	 1	-30	 30;
	 96	 111	 0.00372	 0.00934	 0.00094	 120	 120	 120	 0	 0	 1	-30	 30;
	 97	 120	 0.00124	 0.00413	 0.00039	 128	 128	 128	 0	 0	 1	-30	 30;
	 99	 127	 0.00133	 0.00434	 0.00044	 123	 123	 123	 0	 0	 1	-30	 30;
	 101	 107	 0.00289	 0.00926	 0.00094	 137	 137	 137	 0	 0	 1	-30	 30;
	 101	 121	 0.00207	 0.00694	 0.0007	 137	 137	 137	 0	 0	 1	-30	 30;
	 102	 103	 0.00413	 0.01372	 0.00138	 62	 62	 62	 0	 0	 1	-30	 30;
	 103	 125	 0.03438	 0.06099	 0.00569	 62	 62	 62	 0	 0	 1	-30	 30;
	 104	 105	 8e-05	 0.00083	 0	 438	 438	 438	 0	 0	 1	-30	 30;
	 104	 106	 0.00124	 0.00413	 0.00039	 128	 128	 128	 0	 0	 1	-30	 30;
	 105	 106	 0.00124	 0.00413	 0.00039	 128	 128	 128	 0	 0	 1	-30	 30;
	 108	 132	 0.0001	 0.01	 0	 131.42	 157.71	 197.13	 0	 0	 1	-30	 30;
	 109	 125	 0.0395	 0.1281	 0.01314	 62	 62	 62	 0	 0	 1	-30	 30;
	 109	 129	 0.00165	 0.00496	 0.00053	 137	 137	 137	 0	 0	 1	-30	 30;
	 111	 127	 0.0235	 0.07683	 0.00783	 123	 123	 123	 0	 0	 1	-30	 30;
	 112	 113	 0.00645	 0.02066	 0.00213	 137	 137	 137	 0	 0	 1	-30	 30;
	 112	 123	 0.04174	 0.07322	 0.00692	 90	 90	 90	 0	 0	 1	-30	 30;
	 112	 124	 0.01132	 0.03636	 0.00375	 137	 137	 137	 0	 0	 1	-30	 30;
	 115	 117	 0.04351	 0.09356	 0.00962	 54.76	 71.18	 71.18	 0	 0	 1	-30	 30;
	 116	 119	 0.01653	 0.03306	 0.00242	 76.66	 91.99	 114.99	 0	 0	 1	-30	 30;
	 117	 118	 8e-05	 0.00083	 0	 438	 438	 438	 0	 0	 1	-30	 30;
	 117	 122	 0.02394	 0.04718	 0.00469	 58.83	 76.48	 76.48	 0	 0	 1	-30	 30;
	 124	 128	 0.01721	 0.05623	 0.00573	 140	 140	 140	 0	 0	 1	-30	 30;
	 128	 129	 8e-05	 0.00083	 0	 438	 438	 438	 0	 0	 1	-30	 30;
	 132	 133	 0.05504	 0.1643	 0.01682	 114.16	 137	 171.24	 0	 0	 1	-30	 30;
	 133	 134	 8e-05	 0.00083	 0	 438	 438	 438	 0	 0	 1	-30	 30;
	 133	 136	 0.00926	 0.03008	 0.00307	 123	 123	 123	 0	 0	 1	-30	 30;
	 133	 137	 0.01463	 0.05661	 0.00653	 140	 140	 140	 0	 0	 1	-30	 30;
	 133	 138	 0.02688	 0.08734	 0.00915	 123	 123	 123	 0	 0	 1	-30	 30;
	 135	 136	 0.00132	 0.00421	 0.00044	 119	 119	 119	 0	 0	 1	-30	 30;
	 139	 140	 8e-05	 0.00083	 0	 438	 438	 438	 0	 0	 1	-30	 30;
	 139	 173	 0.00364	 0.01149	 0.00123	 175.28	 210.34	 262.92	 0	 0	 1	-30	 30;
	 140	 179	 0.00653	 0.02058	 0.00222	 170.42	 204.51	 255.63	 0	 0	 1	-30	 30;
	 141	 142	 8e-05	 0.00083	 0	 438	 438	 438	 0	 0	 1	-30	 30;
	 141	 157	 0.00488	 0.01231	 0.00189	 74.62	 97.01	 97.01	 0	 0	 1	-30	 30;
	 142	 190	 0.00074	 0.00223	 0.0003	 62	 62	 62	 0	 0	 1	-30	 30;
	 143	 173	 0.00157	 0.00463	 0.00057	 178.28	 213.94	 267.43	 0	 0	 1	-30	 30;
	 144	 145	 8e-05	 0.00083	 0	 438	 438	 438	 0	 0	 1	-30	 30;
	 144	 157	 0.00455	 0.01289	 0.00174	 62	 62	 62	 0	 0	 1	-30	 30;
	 145	 194	 0.00603	 0.01711	 0.00231	 62	 62	 62	 0	 0	 1	-30	 30;
	 146	 147	 8e-05	 0.00083	 0	 438	 438	 438	 0	 0	 1	-30	 30;
	 146	 148	 0.0005	 0.00149	 0.0096	 98	 98	 98	 0	 0	 1	-30	 30;
	 148	 153	 8e-05	 0.00066	 7e-05	 98	 98	 98	 0	 0	 1	-30	 30;
	 148	 185	 0.00207	 0.01413	 0.00162	 98	 98	 98	 0	 0	 1	-30	 30;
	 149	 150	 8e-05	 0.00083	 0	 438	 438	 438	 0	 0	 1	-30	 30;
	 149	 157	 0.00405	 0.01331	 0.00135	 77.01	 92.41	 115.51	 0	 0	 1	-30	 30;
	 150	 181	 0.01025	 0.02926	 0.0039	 77.98	 93.57	 116.96	 0	 0	 1	-30	 30;
	 151	 152	 0.00231	 0.00273	 0.00058	 39	 39	 39	 0	 0	 1	-30	 30;
	 152	 161	 0.00579	 0.01785	 0.00204	 105	 105	 105	 0	 0	 1	-30	 30;
	 152	 177	 0.0043	 0.01347	 0.00147	 105	 105	 105	 0	 0	 1	-30	 30;
	 154	 177	 0.00686	 0.02215	 0.00232	 75	 75	 75	 0	 0	 1	-30	 30;
	 155	 156	 0.00033	 0.00041	 9e-05	 39	 39	 39	 0	 0	 1	-30	 30;
	 156	 161	 0.0076	 0.02355	 0.00263	 163.37	 196.05	 245.06	 0	 0	 1	-30	 30;
	 156	 178	 0.00273	 0.00876	 0.0009	 163.87	 196.65	 245.81	 0	 0	 1	-30	 30;
	 157	 185	 0.01694	 0.05562	 0.0056	 62	 62	 62	 0	 0	 1	-30	 30;
	 158	 161	 0.03413	 0.08545	 0.00909	 74.04	 96.25	 96.25	 0	 0	 1	-30	 30;
	 158	 165	 0.00992	 0.01661	 0.00395	 88.37	 106.05	 132.56	 0	 0	 1	-30	 30;
	 158	 169	 0.02496	 0.03802	 0.00491	 100.27	 120.32	 150.4	 0	 0	 1	-30	 30;
	 158	 192	 0.0062	 0.01562	 0.00277	 62	 62	 62	 0	 0	 1	-30	 30;
...
];

mpc_regionR1.gencost = [
%	2           startup     shutdown    n           c(n-1)...c0 
	 2	 0	 0	 3	 0	 23.535653	 0;
	 2	 0	 0	 3	 0	 27.46502	 0;
	 2	 0	 0	 3	 0	 34.2278	 0;
	 2	 0	 0	 3	 0	 36.624241	 0;
	 2	 0	 0	 3	 0	 48.190116	 0;
	 2	 0	 0	 3	 0	 37.933947	 0;
	 2	 0	 0	 3	 0	 12.156093	 0;
	 2	 0	 0	 3	 0	 36.057882	 0;
	 2	 0	 0	 3	 0	 46.037465	 0;
	 2	 0	 0	 3	 0	 18.648445	 0;
	 2	 0	 0	 3	 0	 47.503236	 0;
	 2	 0	 0	 3	 0	 103.913889	 0;
	 2	 0	 0	 3	 0	 41.991113	 0;
	 2	 0	 0	 3	 0	 33.415433	 0;
	 2	 0	 0	 3	 0	 26.331314	 0;
	 2	 0	 0	 3	 0	 41.212053	 0;
	 2	 0	 0	 3	 0	 37.964524	 0;
	 2	 0	 0	 3	 0	 28.621957	 0;
	 2	 0	 0	 3	 0	 24.735716	 0;
	 2	 0	 0	 3	 0	 30.362388	 0;
	 2	 0	 0	 3	 0	 38.096425	 0;
	 2	 0	 0	 3	 0	 39.564385	 0;
	 2	 0	 0	 3	 0	 48.503408	 0;
	 2	 0	 0	 3	 0	 36.698208	 0;
	 2	 0	 0	 3	 0	 29.832915	 0;
	 2	 0	 0	 3	 0	 19.462995	 0;
	 2	 0	 0	 3	 0	 24.670298	 0;
	 2	 0	 0	 3	 0	 42.514759	 0;
	 2	 0	 0	 3	 0	 19.631594	 0;
	 2	 0	 0	 3	 0	 44.491363	 0;
	 2	 0	 0	 3	 0	 28.563386	 0;
	 2	 0	 0	 3	 0	 44.314937	 0;
	 2	 0	 0	 3	 0	 30.86321	 0;
	 2	 0	 0	 3	 0	 122.118278	 0;
	 2	 0	 0	 3	 0	 42.045828	 0;
	 2	 0	 0	 3	 0	 19.858774	 0;
	 2	 0	 0	 3	 0	 100.342657	 0;
	 2	 0	 0	 3	 0	 6.557863	 0;
	 2	 0	 0	 3	 0	 32.124894	 0;
	 2	 0	 0	 3	 0	 120.383376	 0;
	 2	 0	 0	 3	 0	 53.898136	 0;
	 2	 0	 0	 3	 0	 30.44223	 0;
	 2	 0	 0	 3	 0	 34.799871	 0;
	 2	 0	 0	 3	 0	 28.78128	 0;
	 2	 0	 0	 3	 0	 37.79375	 0;
	 2	 0	 0	 3	 0	 26.464892	 0;
	 2	 0	 0	 3	 0	 39.300841	 0;
	 2	 0	 0	 3	 0	 24.508809	 0;
	 2	 0	 0	 3	 0	 102.118437	 0;
	 2	 0	 0	 3	 0	 25.764471	 0;
	 2	 0	 0	 3	 0	 17.836918	 0;
	 2	 0	 0	 3	 0	 6.191415	 0;
	 2	 0	 0	 3	 0	 31.037366	 0;
	 2	 0	 0	 3	 0	 26.150452	 0;
	 2	 0	 0	 3	 0	 35.87963	 0;
];


% -------------------- mpc_regionR2 --------------------

mpc_regionR2.version = '2';
mpc_regionR2.baseMVA = 100.0000;
mpc_regionR2.bus = [
%	bus_i       type        Pd          Qd          Gs          Bs          area        Vm          Va          baseKV      zone        Vmax        Vmin        
	 1	 1	 59.57	 70.73	 0	 0	 3	 1	 0	 345	 3	 1.1	 0.9;
	 2	 2	 0	 0	 0	-176.98	 3	 1	 0	 345	 3	 1.1	 0.9;
	 3	 2	 0	 0	 0	 0	 3	 1	 0	 500	 3	 1.1	 0.9;
	 4	 1	 0	 0	 0	 0	 3	 1	 0	 500	 3	 1.1	 0.9;
	 5	 2	 0	 0	 0	 17.28	 3	 1	 0	 500	 3	 1.1	 0.9;
	 6	 1	 12.3	 1.2	 0	 0	 3	 1	 0	 138	 3	 1.1	 0.9;
	 7	 1	 7.09	 1.1	 0	 0	 3	 1	 0	 138	 3	 1.1	 0.9;
	 8	 2	 0	 0	 0	 0	 3	 1	 0	 138	 3	 1.1	 0.9;
	 9	 1	 16.95	 5.82	 0	 0	 3	 1	 0	 138	 3	 1.1	 0.9;
	 10	 1	 19.31	 4.92	 0	 0	 3	 1	 0	 138	 3	 1.1	 0.9;
	 11	 1	 38.22	 3.35	 0	 0	 3	 1	 0	 138	 3	 1.1	 0.9;
	 12	 2	 18.43	 2.11	 0	 13.51	 3	 1	 0	 138	 3	 1.1	 0.9;
	 13	 1	 6.93	 0.7	 0	 0	 3	 1	 0	 138	 3	 1.1	 0.9;
	 14	 2	 9.45	-3.27	 0	 0	 3	 1	 0	 138	 3	 1.1	 0.9;
	 15	 1	 14.9	 4.22	 0	 0	 3	 1	 0	 138	 3	 1.1	 0.9;
	 16	 1	 0	 0	 0	 0	 3	 1	 0	 138	 3	 1.1	 0.9;
	 17	 1	 0	 0	 0	 0	 3	 1	 0	 138	 3	 1.1	 0.9;
	 18	 1	 0	 0	 0	 0	 3	 1	 0	 138	 3	 1.1	 0.9;
	 19	 1	 0	 0	 0	 60	 3	 1	 0	 16	 3	 1.1	 0.9;
	 20	 1	 26.1	 4.22	 0	 0	 3	 1	 0	 138	 3	 1.1	 0.9;
	 21	 1	 11.8	 4.12	 0	 0	 3	 1	 0	 138	 3	 1.1	 0.9;
	 22	 2	 0.01	 0.01	 0	 0	 3	 1	 0	 138	 3	 1.1	 0.9;
	 23	 2	 107.63	 31.39	 0	 0	 3	 1	 0	 138	 3	 1.1	 0.9;
	 24	 1	 92.32	 26.21	 0	 0	 3	 1	 0	 138	 3	 1.1	 0.9;
	 25	 1	 0	 0	 0	 0	 3	 1	 0	 138	 3	 1.1	 0.9;
	 26	 1	 12.24	 2.61	 0	 0	 3	 1	 0	 138	 3	 1.1	 0.9;
	 27	 2	 7.51	 0.68	 0	 0	 3	 1	 0	 138	 3	 1.1	 0.9;
	 28	 1	 22.27	 4.72	 0	 0	 3	 1	 0	 138	 3	 1.1	 0.9;
	 29	 2	 13.12	 2.32	 0	 3.95	 3	 1	 0	 138	 3	 1.1	 0.9;
	 30	 1	 20.53	 11.8	 0	 0	 3	 1	 0	 138	 3	 1.1	 0.9;
	 31	 1	 13.87	 2.21	 0	 0	 3	 1	 0	 138	 3	 1.1	 0.9;
	 32	 1	 16.95	 2.61	 0	 0	 3	 1	 0	 138	 3	 1.1	 0.9;
	 33	 1	 5.75	 1.61	 0	 0	 3	 1	 0	 138	 3	 1.1	 0.9;
	 34	 1	 23.89	 5.22	 0	 3.33	 3	 1	 0	 138	 3	 1.1	 0.9;
	 35	 1	 18.29	 5.82	 0	 0	 3	 1	 0	 138	 3	 1.1	 0.9;
	 36	 2	 0	 0	 0	 15.41	 3	 1	 0	 138	 3	 1.1	 0.9;
	 37	 2	 18.43	 4.22	 0	-33.87	 3	 1	 0	 138	 3	 1.1	 0.9;
	 38	 1	 34.65	 4.72	 0	 0	 3	 1	 0	 138	 3	 1.1	 0.9;
	 39	 1	 0.15	 0.1	 0	 0	 3	 1	 0	 138	 3	 1.1	 0.9;
	 40	 1	 0.15	 0.1	 0	 0	 3	 1	 0	 138	 3	 1.1	 0.9;
	 41	 2	 13.87	 2.31	 0	 0	 3	 1	 0	 138	 3	 1.1	 0.9;
	 42	 1	 19.9	 6.23	 0	 0	 3	 1	 0	 138	 3	 1.1	 0.9;
	 43	 1	 10.02	 2.61	 0	 0	 3	 1	 0	 138	 3	 1.1	 0.9;
	 44	 1	 6.93	 2.61	 0	 0	 3	 1	 0	 138	 3	 1.1	 0.9;
	 45	 1	 9.29	 0.9	 0	 0	 3	 1	 0	 138	 3	 1.1	 0.9;
	 46	 1	 6.05	 2.51	 0	 0	 3	 1	 0	 138	 3	 1.1	 0.9;
	 47	 2	 0.01	 0.01	 0	 0	 3	 1	 0	 138	 3	 1.1	 0.9;
	 48	 1	 44.31	-3	 0	 0	 3	 1	 0	 138	 3	 1.1	 0.9;
	 49	 2	 9.29	 1.57	 0	 1.75	 3	 1	 0	 138	 3	 1.1	 0.9;
	 50	 1	 90.18	 45.53	 0	 0	 4	 1	 0	 345	 4	 1.1	 0.9;
	 51	 1	 0	 0	 0	 0	 4	 1	 0	 345	 4	 1.1	 0.9;
	 52	 2	 49.18	 159.4	 0	 0	 4	 1	 0	 345	 4	 1.1	 0.9;
	 53	 2	 29.22	 36.57	 0	 0	 4	 1	 0	 345	 4	 1.1	 0.9;
	 54	 2	 17.61	 30	 0	 0	 4	 1	 0	 500	 4	 1.1	 0.9;
	 55	 2	 17.61	 30	 0	 0	 4	 1	 0	 500	 4	 1.1	 0.9;
	 56	 2	 0	 0	 0	 0	 4	 1	 0	 500	 4	 1.1	 0.9;
	 57	 1	 0	 0	 0	 93.07	 4	 1	 0	 500	 4	 1.1	 0.9;
	 58	 1	 49.04	 22.47	 0	 0	 4	 1	 0	 345	 4	 1.1	 0.9;
	 59	 1	 27.17	 68.88	 0	 0	 4	 1	 0	 345	 4	 1.1	 0.9;
	 60	 1	 0	 0	 0	 168.92	 4	 1	 0	 500	 4	 1.1	 0.9;
	 61	 1	 119.62	 85.9	 0	 0	 4	 1	 0	 345	 4	 1.1	 0.9;
	 62	 1	 0	 0	 0	 0	 4	 1	 0	 500	 4	 1.1	 0.9;
	 63	 1	 0	 0	 0	 0	 4	 1	 0	 500	 4	 1.1	 0.9;
	 64	 1	 0	 0	 0	-59	 4	 1	 0	 500	 4	 1.1	 0.9;
	 65	 1	 15.91	 2.51	 0	 0	 4	 1	 0	 138	 4	 1.1	 0.9;
	 66	 2	 190.04	 36.94	 0	 0	 4	 1	 0	 138	 4	 1.1	 0.9;
	 67	 1	 0	 0	 0	 0	 4	 1	 0	 138	 4	 1.1	 0.9;
	 68	 1	 9.63	 2.09	 0	 0	 4	 1	 0	 138	 4	 1.1	 0.9;
	 69	 1	 13.77	 2.09	 0	 0	 4	 1	 0	 138	 4	 1.1	 0.9;
	 70	 1	 18.35	 2.2	 0	 0	 4	 1	 0	 138	 4	 1.1	 0.9;
	 71	 1	 23.09	 5.75	 0	 0	 4	 1	 0	 138	 4	 1.1	 0.9;
	 72	 2	 27.55	 6.81	 0	-25.03	 4	 1	 0	 138	 4	 1.1	 0.9;
	 73	 2	 25.23	 7.74	 0	-0.13	 4	 1	 0	 138	 4	 1.1	 0.9;
	 74	 1	 0	 0	 0	 0.42	 4	 1	 0	 138	 4	 1.1	 0.9;
	 75	 1	 121.88	 9.34	 0	 0	 4	 1	 0	 138	 4	 1.1	 0.9;
	 76	 1	 21.41	 5.34	 0	 0	 4	 1	 0	 138	 4	 1.1	 0.9;
	 77	 2	 73.74	 12.27	 0	 0	 4	 1	 0	 138	 4	 1.1	 0.9;
	 78	 1	 0	 0	 0	 41.49	 4	 1	 0	 16	 4	 1.1	 0.9;
	 79	 1	 0	 0	 0	-1.98	 4	 1	 0	 138	 4	 1.1	 0.9;
	 80	 1	 0	 0	 0	-50	 4	 1	 0	 138	 4	 1.1	 0.9;
	 81	 1	 54.98	-10.05	 0	 0	 4	 1	 0	 138	 4	 1.1	 0.9;
	 82	 1	 0	 0	 0	 0	 4	 1	 0	 138	 4	 1.1	 0.9;
	 83	 1	 11.06	-10.28	 0	 0	 4	 1	 0	 138	 4	 1.1	 0.9;
	 84	 1	 16.82	 3.77	 0	 0	 4	 1	 0	 138	 4	 1.1	 0.9;
	 85	 1	 16.82	 4.08	 0	 0	 4	 1	 0	 138	 4	 1.1	 0.9;
	 86	 1	 80.63	-3.06	 0	 0	 4	 1	 0	 138	 4	 1.1	 0.9;
	 87	 1	 11.93	 4.5	 0	 0	 4	 1	 0	 138	 4	 1.1	 0.9;
	 88	 1	 89.93	 10.16	 0	 0	 4	 1	 0	 138	 4	 1.1	 0.9;
	 89	 1	 0	 0	 0	 0	 4	 1	 0	 500	 4	 1.1	 0.9;
	 90	 2	 634	 0	 0	 0	 4	 1	 0	 345	 4	 1.1	 0.9;
	 91	 1	 0	 0	 0	 0	 5	 1	 0	 69	 5	 1.1	 0.9;
	 92	 1	 21.69	-1.14	 0	 0	 5	 1	 0	 69	 5	 1.1	 0.9;
	 93	 2	 0	 0	 0	 0	 5	 1	 0	 13.8	 5	 1.1	 0.9;
	 94	 1	 1.22	-1.86	 0	 0	 5	 1	 0	 69	 5	 1.1	 0.9;
	 95	 1	-0.01	 0.48	 0	 0	 5	 1	 0	 69	 5	 1.1	 0.9;
	 96	 1	 0	 0	 0	 0	 5	 1	 0	 69	 5	 1.1	 0.9;
	 97	 2	 0	 0	 0	 11.26	 5	 1	 0	 138	 5	 1.1	 0.9;
	 98	 1	 5.07	-2.42	 0	 0	 5	 1	 0	 69	 5	 1.1	 0.9;
	 99	 1	 8.98	-1.01	 0	 0	 5	 1	 0	 69	 5	 1.1	 0.9;
	 100	 1	 0	 0	 0	 0	 5	 1	 0	 69	 5	 1.1	 0.9;
	 101	 1	 9.01	-0.97	 0	 0	 5	 1	 0	 69	 5	 1.1	 0.9;
	 102	 1	 0.95	-2.5	 0	 0	 5	 1	 0	 69	 5	 1.1	 0.9;
	 103	 1	 0	 0	 0	 0	 5	 1	 0	 161	 5	 1.1	 0.9;
	 104	 1	 0.12	 0.5	 0	 0	 5	 1	 0	 69	 5	 1.1	 0.9;
	 105	 2	 0	 0	 0	 0	 5	 1	 0	 138	 5	 1.1	 0.9;
	 106	 1	 0	 0	 0	 0	 5	 1	 0	 69	 5	 1.1	 0.9;
	 107	 1	 1.76	-1.57	 0	 0	 5	 1	 0	 69	 5	 1.1	 0.9;
	 108	 2	 0	 0	 0	 0	 5	 1	 0	 13.8	 5	 1.1	 0.9;
	 109	 2	 0	 0	 0	 0	 5	 1	 0	 138	 5	 1.1	 0.9;
	 110	 1	 0	 0	 0	 0	 5	 1	 0	 69	 5	 1.1	 0.9;
	 111	 1	 1.7	-1.58	 0	 0	 5	 1	 0	 69	 5	 1.1	 0.9;
	 112	 1	 4.36	 0.04	 0	 0	 5	 1	 0	 69	 5	 1.1	 0.9;
	 113	 1	 0	 0	 0	 0	 5	 1	 0	 69	 5	 1.1	 0.9;
	 114	 1	 15.32	 0.39	 0	 0	 5	 1	 0	 69	 5	 1.1	 0.9;
	 115	 1	 0	 0	 0	 0	 5	 1	 0	 69	 5	 1.1	 0.9;
	 116	 1	-0.23	-7.22	 0	 0	 5	 1	 0	 69	 5	 1.1	 0.9;
	 117	 1	 6.04	-2.39	 0	 0	 5	 1	 0	 69	 5	 1.1	 0.9;
	 118	 1	 1.91	-0.45	 0	 0	 5	 1	 0	 69	 5	 1.1	 0.9;
	 119	 1	-0.03	 0.48	 0	 0	 5	 1	 0	 69	 5	 1.1	 0.9;
	 120	 1	 11.15	 4.63	 0	 0	 5	 1	 0	 69	 5	 1.1	 0.9;
	 121	 1	 0	 0	 0	 0	 5	 1	 0	 161	 5	 1.1	 0.9;
	 122	 1	 12.36	 5.12	 0	 10	 5	 1	 0	 69	 5	 1.1	 0.9;
	 123	 2	 0	 0	 0	 0	 5	 1	 0	 13.8	 5	 1.1	 0.9;
	 124	 1	 7.04	-0.67	 0	 0	 5	 1	 0	 69	 5	 1.1	 0.9;
	 125	 1	 15.09	 0.39	 0	 0	 5	 1	 0	 69	 5	 1.1	 0.9;
	 126	 1	 0	 0	 0	 0	 5	 1	 0	 69	 5	 1.1	 0.9;
	 127	 1	 0	 0	 0	 0	 5	 1	 0	 161	 5	 1.1	 0.9;
	 128	 1	 12.18	 1.27	 0	 0	 5	 1	 0	 69	 5	 1.1	 0.9;
	 129	 1	 0	 0	 0	 0	 5	 1	 0	 69	 5	 1.1	 0.9;
	 130	 1	 0.56	-3.1	 0	 0	 5	 1	 0	 69	 5	 1.1	 0.9;
	 131	 1	-0.13	-7.04	 0	-10	 5	 1	 0	 69	 5	 1.1	 0.9;
	 132	 1	 3.55	 0.34	 0	 0	 5	 1	 0	 69	 5	 1.1	 0.9;
	 133	 1	 1.34	 0.61	 0	 0	 5	 1	 0	 69	 5	 1.1	 0.9;
	 134	 1	 0	 0	 0	 0	 5	 1	 0	 69	 5	 1.1	 0.9;
	 135	 1	 9.41	 3.51	 0	 0	 5	 1	 0	 69	 5	 1.1	 0.9;
	 136	 1	 1.03	-5.77	 0	 0	 5	 1	 0	 69	 5	 1.1	 0.9;
	 137	 1	 1.7	-1.57	 0	 0	 5	 1	 0	 69	 5	 1.1	 0.9;
	 138	 1	 11.84	 4.93	 0	 0	 5	 1	 0	 69	 5	 1.1	 0.9;
	 139	 1	 5.47	 1	 0	 0	 5	 1	 0	 69	 5	 1.1	 0.9;
	 140	 1	 0	 0	 0	 0	 5	 1	 0	 69	 5	 1.1	 0.9;
	 141	 1	 0	 0	 0	 0	 5	 1	 0	 69	 5	 1.1	 0.9;
	 142	 1	 0	 0	 0	 0	 7	 1	 0	 345	 7	 1.1	 0.9;
	 143	 1	 39.01	 39.36	 0	 0	 7	 1	 0	 345	 7	 1.1	 0.9;
	 144	 1	 34.12	 25.31	 0	 0	 7	 1	 0	 345	 7	 1.1	 0.9;
	 145	 2	 0	 0	 0	 0	 7	 1	 0	 345	 7	 1.1	 0.9;
	 146	 2	 10.27	 18	 0	 0	 7	 1	 0	 345	 7	 1.1	 0.9;
	 147	 2	 11.74	 21	 0	 5.93	 7	 1	 0	 345	 7	 1.1	 0.9;
	 148	 1	 170.09	 19.59	 0	 0	 7	 1	 0	 345	 7	 1.1	 0.9;
	 149	 1	 1.16	-45.89	 0	 0	 7	 1	 0	 345	 7	 1.1	 0.9;
	 150	 1	 0	 0	 0	 0	 7	 1	 0	 138	 7	 1.1	 0.9;
	 151	 1	 12.08	 2.16	 0	 0	 7	 1	 0	 138	 7	 1.1	 0.9;
	 152	 1	 7.06	 1.73	 0	 0	 7	 1	 0	 138	 7	 1.1	 0.9;
	 153	 2	 34.65	 21.1	 0	 0	 7	 1	 0	 138	 7	 1.1	 0.9;
	 154	 2	 0	 0	 0	 0	 7	 1	 0	 138	 7	 1.1	 0.9;
	 155	 1	 8.01	 2.31	 0	 0	 7	 1	 0	 138	 7	 1.1	 0.9;
	 156	 1	 0	 0	 0	 0	 7	 1	 0	 138	 7	 1.1	 0.9;
	 157	 1	 14.12	 3.14	 0	 0	 7	 1	 0	 138	 7	 1.1	 0.9;
	 158	 2	 0	 0.1	 0	 0	 7	 1	 0	 138	 7	 1.1	 0.9;
	 159	 1	 0	 0	 0	 0	 7	 1	 0	 138	 7	 1.1	 0.9;
	 160	 1	 0	 0	 0	 0	 7	 1	 0	 138	 7	 1.1	 0.9;
	 161	 1	 0	 0	 0	 0	 7	 1	 0	 138	 7	 1.1	 0.9;
	 162	 1	 0	 0	 0	 0	 7	 1	 0	 138	 7	 1.1	 0.9;
	 163	 1	 0	 0	 0	 0	 7	 1	 0	 138	 7	 1.1	 0.9;
	 164	 1	 7.68	 1.81	 0	 0	 7	 1	 0	 138	 7	 1.1	 0.9;
	 165	 2	 2.82	 0.6	 0	 2.75	 7	 1	 0	 138	 7	 1.1	 0.9;
	 166	 2	 77.79	 25.02	 0	-0.23	 7	 1	 0	 138	 7	 1.1	 0.9;
	 167	 1	 8.81	 2.13	 0	 0	 7	 1	 0	 138	 7	 1.1	 0.9;
	 168	 1	 4.08	 0.9	 0	 0	 7	 1	 0	 138	 7	 1.1	 0.9;
	 169	 1	 11.92	 2.76	 0	 0	 7	 1	 0	 138	 7	 1.1	 0.9;
	 170	 1	 0.63	 1.25	 0	 0	 7	 1	 0	 138	 7	 1.1	 0.9;
	 171	 1	 0	 0	 0	-0.29	 7	 1	 0	 138	 7	 1.1	 0.9;
	 172	 1	 65.89	 16.97	 0	 0	 7	 1	 0	 138	 7	 1.1	 0.9;
	 173	 1	 9.58	 2.79	 0	 0	 7	 1	 0	 138	 7	 1.1	 0.9;
	 174	 1	 9.23	-8.41	 0	 0	 7	 1	 0	 138	 7	 1.1	 0.9;
	 175	 1	 7.06	 1.51	 0	 0	 7	 1	 0	 138	 7	 1.1	 0.9;
	 176	 2	 10.27	 14	 0	-0.3	 7	 1	 0	 138	 7	 1.1	 0.9;
	 177	 1	 13.34	 3.06	 0	 0	 7	 1	 0	 138	 7	 1.1	 0.9;
	 178	 1	 0	 0	 0	 0	 7	 1	 0	 138	 7	 1.1	 0.9;
	 179	 1	 9.36	 2.77	 0	 0	 7	 1	 0	 138	 7	 1.1	 0.9;
	 180	 1	 12.2	 3.68	 0	 0	 7	 1	 0	 138	 7	 1.1	 0.9;
	 181	 1	 0	 0	 0	 0	 7	 1	 0	 138	 7	 1.1	 0.9;
	 182	 1	 15.22	 3.46	 0	 0	 7	 1	 0	 138	 7	 1.1	 0.9;
	 183	 1	 4.39	 1.14	 0	 0	 7	 1	 0	 138	 7	 1.1	 0.9;
	 184	 1	 9.42	 2.28	 0	 0	 7	 1	 0	 138	 7	 1.1	 0.9;
	 185	 1	 0	 0	 0	 0	 7	 1	 0	 138	 7	 1.1	 0.9;
	 186	 1	 0	 0	 0	 0	 7	 1	 0	 138	 7	 1.1	 0.9;
	 187	 1	 5.34	 1.23	 0	 0	 7	 1	 0	 138	 7	 1.1	 0.9;
	 188	 1	 6.27	 1.55	 0	 0	 7	 1	 0	 138	 7	 1.1	 0.9;
	 189	 1	 0	 0	 0	 0	 7	 1	 0	 138	 7	 1.1	 0.9;
	 190	 1	 0	 0	 0	 0	 7	 1	 0	 138	 7	 1.1	 0.9;
	 191	 1	 6.75	 1.73	 0	 0	 7	 1	 0	 138	 7	 1.1	 0.9;
	 192	 1	 0	 0	 0	 0	 7	 1	 0	 138	 7	 1.1	 0.9;
	 193	 1	 6.75	 1.63	 0	 0	 7	 1	 0	 138	 7	 1.1	 0.9;
	 194	 1	 17.89	 3.96	 0	 0	 7	 1	 0	 138	 7	 1.1	 0.9;
	 195	 1	 26.65	 5.79	 0	 0	 7	 1	 0	 138	 7	 1.1	 0.9;
	 196	 1	 0	 0	 0	 0	 7	 1	 0	 138	 7	 1.1	 0.9;
	 197	 1	 5.65	 1.38	 0	 0	 7	 1	 0	 138	 7	 1.1	 0.9;
	 198	 1	 0	 0	 0	 0	 7	 1	 0	 138	 7	 1.1	 0.9;
	 199	 1	 0.78	 0.3	 0	 0	 7	 1	 0	 138	 7	 1.1	 0.9;
	 200	 1	 0	 0	 0	 0	 7	 1	 0	 138	 7	 1.1	 0.9;
...
];

mpc_regionR2.gen = [
%	bus         Pg          Qg          Qmax        Qmin        Vg          mBase       status      Pmax        Pmin        Pc1         Pc2         Qc1min      Qc1max      Qc2min      Qc2max      ramp_agc    ramp_10     ramp_30     ramp_q      apf         
	 2	 0	 0	 54	-54	 1	 100	 0	 107	 10.145	 0	 0	 0	 0	 0	 0	 0	 0	 0	 0	 35.288;
	 3	 154.6725	 0	 202.93	-202.93	 1	 100	 1	 279	 30.345	 0	 0	 0	 0	 0	 0	 0	 0	 0	 0	 393.516;
	 5	 0	 0	 65	-65	 1	 100	 0	 130	 43.445	 0	 0	 0	 0	 0	 0	 0	 0	 0	 0	 101.886;
	 8	 32.1175	 0	 30	-30	 1	 100	 1	 59	 5.235	 0	 0	 0	 0	 0	 0	 0	 0	 0	 0	 33.726;
	 12	 0	 0	 33.33	-33.33	 1	 100	 0	 31	 5.12	 0	 0	 0	 0	 0	 0	 0	 0	 0	 0	 25.238;
	 14	 0	 0	 125	-125	 1	 7	 0	 249	 2.5	 0	 0	 0	 0	 0	 0	 0	 0	 0	 0	 270;
	 22	 47.5	 10.5	 192	-171	 1	 41	 1	 95	 0	 0	 0	 0	 0	 0	 0	 0	 0	 0	 0	 41;
	 23	 88	-45	 88	-178	 1	 37.52	 1	 176	 0	 0	 0	 0	 0	 0	 0	 0	 0	 0	 0	 25;
	 23	 97.5	-36	 98	-170	 1	 35	 1	 195	 0	 0	 0	 0	 0	 0	 0	 0	 0	 0	 0	 35;
	 23	 0	 0	 68	-68	 1	 25	 0	 135	 0	 0	 0	 0	 0	 0	 0	 0	 0	 0	 0	 25;
	 27	 0	 0	 321	-321	 1	 2	 0	 641	 0	 0	 0	 0	 0	 0	 0	 0	 0	 0	 0	 266;
	 29	 0	 0	 33.33	-33.33	 1	 100	 0	 57	 0	 0	 0	 0	 0	 0	 0	 0	 0	 0	 0	 274;
	 36	 0	 0	 65	-65	 1	 100	 0	 129	 6.485	 0	 0	 0	 0	 0	 0	 0	 0	 0	 0	 27.972;
	 37	 0	 0	 33.33	-33.33	 1	 100	 0	 64	 5.92	 0	 0	 0	 0	 0	 0	 0	 0	 0	 0	 26.842;
	 41	 57	-1.5	 181	-184	 1	 0.36	 1	 114	 0	 0	 0	 0	 0	 0	 0	 0	 0	 0	 0	 276;
	 47	 49.5	 1	 185	-183	 1	 18	 1	 99	 0	 0	 0	 0	 0	 0	 0	 0	 0	 0	 0	 18;
	 49	 0	 0	 4	-4	 1	 4	 0	 8	 0	 0	 0	 0	 0	 0	 0	 0	 0	 0	 0	 277;
	 52	 171.25	 0	 262.8	-262.8	 1	 253.76	 1	 275	 67.5	 0	 0	 0	 0	 0	 0	 0	 0	 0	 0	 205;
	 53	 0	 0	 141	-141	 1	 222	 0	 282	 45	 0	 0	 0	 0	 0	 0	 0	 0	 0	 0	 222;
	 53	 0	 0	 68.33	-68.33	 1	 205	 0	 135	 14	 0	 0	 0	 0	 0	 0	 0	 0	 0	 0	 205;
	 53	 166	 0	 252	-252	 1	 232	 1	 282	 50	 0	 0	 0	 0	 0	 0	 0	 0	 0	 0	 232;
	 54	 140.5	 0	 631.2	-631.2	 1	 268.92	 1	 236	 45	 0	 0	 0	 0	 0	 0	 0	 0	 0	 0	 250.434;
	 55	 0	 0	 77.33	-77.33	 1	 232	 0	 100	 50	 0	 0	 0	 0	 0	 0	 0	 0	 0	 0	 232;
	 55	 154.5	 0	 132	-132	 1	 268.92	 1	 264	 45	 0	 0	 0	 0	 0	 0	 0	 0	 0	 0	 250;
	 56	 944.465	 0	 793	-793	 1	 100	 1	 1585	 303.93	 0	 0	 0	 0	 0	 0	 0	 0	 0	 0	 1241.4449;
	 66	 152	 0	 130	-130	 1	 222	 1	 259	 45	 0	 0	 0	 0	 0	 0	 0	 0	 0	 0	 222;
	 72	 59.52	 11	 193	-171	 1	 4	 1	 118	 1.04	 0	 0	 0	 0	 0	 0	 0	 0	 0	 0	 297;
	 72	 0	 0	 37	-37	 1	 100	 0	 73	 6.655	 0	 0	 0	 0	 0	 0	 0	 0	 0	 0	 28.315;
	 73	 0	 0	 73	-73	 1	 100	 0	 146	 9.86	 0	 0	 0	 0	 0	 0	 0	 0	 0	 0	 34.719;
	 77	 40.625	 13	 194	-168	 1	 6	 1	 80	 1.25	 0	 0	 0	 0	 0	 0	 0	 0	 0	 0	 258;
	 90	 69	-2	 179	-183	 1	 108.13	 1	 138	 0	 0	 0	 0	 0	 0	 0	 0	 0	 0	 0	 254;
	 93	 0	 0	 65	-65	 1	 71.2	 0	 130	 0	 0	 0	 0	 0	 0	 0	 0	 0	 0	 0	 45.15;
	 93	 0	 0	 124	-124	 1	 71.2	 0	 248	 0	 0	 0	 0	 0	 0	 0	 0	 0	 0	 0	 45.15;
	 97	 0	 0	 45	-45	 1	 100	 0	 90	 4.175	 0	 0	 0	 0	 0	 0	 0	 0	 0	 0	 298;
	 105	 80.14	 0	 76	-76	 1	 100	 1	 152	 8.28	 0	 0	 0	 0	 0	 0	 0	 0	 0	 0	 50.412;
	 108	 0	 0	 42	-42	 1	 71.2	 0	 84	 0	 0	 0	 0	 0	 0	 0	 0	 0	 0	 0	 45.15;
	 108	 0	 0	 195	-195	 1	 71.2	 0	 389	 0	 0	 0	 0	 0	 0	 0	 0	 0	 0	 0	 45.15;
	 109	 66.325	 68	 198	-62	 1	 100	 1	 123	 9.65	 0	 0	 0	 0	 0	 0	 0	 0	 0	 0	 64.187;
	 123	 0	 0	 61	-61	 1	 71.2	 0	 122	 0	 0	 0	 0	 0	 0	 0	 0	 0	 0	 0	 45.15;
	 123	 0	 0	 69	-69	 1	 71.2	 0	 138	 0	 0	 0	 0	 0	 0	 0	 0	 0	 0	 0	 45.15;
	 145	 96.4225	 0	 134.4	-134.4	 1	 100	 1	 175	 17.845	 0	 0	 0	 0	 0	 0	 0	 0	 0	 0	 65.268;
	 146	 126	 0	 109	-109	 1	 163.45	 1	 217	 35	 0	 0	 0	 0	 0	 0	 0	 0	 0	 0	 143.75;
	 147	 157.5	 0	 140	-140	 1	 148.19	 1	 280	 35	 0	 0	 0	 0	 0	 0	 0	 0	 0	 0	 143.75;
	 147	 0	 0	 33.33	-33.33	 1	 100	 0	 10	 6.55	 0	 0	 0	 0	 0	 0	 0	 0	 0	 0	 28.104;
	 153	 321	 0	 313	-313	 1	 147.7	 1	 626	 16	 0	 0	 0	 0	 0	 0	 0	 0	 0	 0	 137.5;
	 154	 0	 0	 37.67	-37.67	 1	 113	 0	 32	 3	 0	 0	 0	 0	 0	 0	 0	 0	 0	 0	 113;
	 158	 0	 0	 45	-45	 1	 135	 0	 29	 17.5	 0	 0	 0	 0	 0	 0	 0	 0	 0	 0	 135;
	 165	 0	 0	 115	-115	 1	 100	 0	 230	 1.2	 0	 0	 0	 0	 0	 0	 0	 0	 0	 0	 259;
	 166	 0	 0	 57	-57	 1	 50	 0	 114	 5	 0	 0	 0	 0	 0	 0	 0	 0	 0	 0	 50;
	 176	 136.53	 0	 112	-112	 1	 144	 1	 223	 50.06	 0	 0	 0	 0	 0	 0	 0	 0	 0	 0	 254.988;
	 176	 0	 0	 127	-127	 1	 110	 0	 254	 39.5	 0	 0	 0	 0	 0	 0	 0	 0	 0	 0	 110;
	 211	 0	 0	 123.33	-123.33	 1	 370	 0	 232	 120	 0	 0	 0	 0	 0	 0	 0	 0	 0	 0	 370;
	 211	 0	 0	 123.33	-123.33	 1	 370	 0	 240	 108	 0	 0	 0	 0	 0	 0	 0	 0	 0	 0	 370;
	 211	 800	 0	 740	-740	 1	 449.45	 1	 1480	 120	 0	 0	 0	 0	 0	 0	 0	 0	 0	 0	 431.25;
	 212	 268.5	 0	 209	-209	 1	 455.56	 1	 417	 120	 0	 0	 0	 0	 0	 0	 0	 0	 0	 0	 462.5;
	 212	 284	 0	 224	-224	 1	 397.31	 1	 448	 120	 0	 0	 0	 0	 0	 0	 0	 0	 0	 0	 370;
	 213	 497.445	 0	 409	-409	 1	 616.84	 1	 818	 176.89	 0	 0	 0	 0	 0	 0	 0	 0	 0	 0	 1090.993;
	 213	 359.945	 0	 272	-272	 1	 616.84	 1	 543	 176.89	 0	 0	 0	 0	 0	 0	 0	 0	 0	 0	 1090.993;
	 213	 522.945	 0	 435	-435	 1	 616.84	 1	 869	 176.89	 0	 0	 0	 0	 0	 0	 0	 0	 0	 0	 1090.993;
	 214	 525.5	 0	 466	-466	 1	 451.84	 1	 931	 120	 0	 0	 0	 0	 0	 0	 0	 0	 0	 0	 462.5;
	 214	 279.5	 0	 220	-220	 1	 416.51	 1	 439	 120	 0	 0	 0	 0	 0	 0	 0	 0	 0	 0	 425;
	 214	 289.5	 0	 230	-230	 1	 416.51	 1	 459	 120	 0	 0	 0	 0	 0	 0	 0	 0	 0	 0	 425;
	 223	 136.975	 0	 260.4	-260.4	 1	 100	 1	 232	 41.95	 0	 0	 0	 0	 0	 0	 0	 0	 0	 0	 156.952;
	 226	 488.9175	 0	 466	-466	 1	 166.81	 1	 932	 45.835	 0	 0	 0	 0	 0	 0	 0	 0	 0	 0	 137.5;
	 226	 0	 0	 40	-40	 1	 120	 0	 52	 50	 0	 0	 0	 0	 0	 0	 0	 0	 0	 0	 120;
	 236	 405	 0	 345	-345	 1	 477.9	 1	 690	 120	 0	 0	 0	 0	 0	 0	 0	 0	 0	 0	 437.5;
	 240	 48	 0	 179	-179	 1	 30	 1	 96	 0	 0	 0	 0	 0	 0	 0	 0	 0	 0	 0	 30;
	 246	 43.5	-2	 178	-182	 1	 0.43	 1	 87	 0	 0	 0	 0	 0	 0	 0	 0	 0	 0	 0	 261;
];

mpc_regionR2.branch = [
%	fbus        tbus        r           x           b           rateA       rateB       rateC       ratio       angle       status      angmin      angmax      
	 1	 2	 2e-05	 0.00021	 0	 876	 876	 876	 0	 0	 1	-30	 30;
	 1	 3	 0.00033	 0.02711	 0	 500	 500	 500	 1.08613	 0	 1	-30	 30;
	 16	 1	 0.00163	 0.06671	 0	 160	 160	 160	 1.06463	 0	 1	-30	 30;
	 18	 2	 0.00163	 0.06671	 0	 160	 160	 160	 1.05908	 0	 1	-30	 30;
	 2	 59	 0.0001	 0.01	 0	 229.39	 275.26	 344.08	 0	 0	 1	-30	 30;
	 4	 3	 0.00032	 0.0464	 0	 330	 330	 330	 0.9999	 0	 1	-30	 30;
	 3	 57	 0.0001	 0.01	 0	 379.94	 455.93	 569.91	 0	 0	 1	-30	 30;
	 17	 4	 0.00032	-0.00435	 0	 330	 330	 330	 1.06892	 0	 1	-30	 30;
	 19	 4	-0.00022	 0.1019	 0	 260	 312	 390	 0.96037	 0	 1	-30	 30;
	 36	 5	-0.00013	-0.00407	 0	 688.8	 826.56	 1033.2	 1.05737	 0	 1	-30	 30;
	 5	 210	 0.0001	 0.01	 0	 689.73	 827.68	 1034.6	 0	 0	 1	-30	 30;
	 6	 7	 0.02165	 0.0724	 0.00706	 90	 90	 90	 0	 0	 1	-30	 30;
	 6	 9	 0.07884	 0.10231	 0.01021	 49	 49	 49	 0	 0	 1	-30	 30;
	 7	 8	 8e-05	 0.00083	 0	 438	 438	 438	 0	 0	 1	-30	 30;
	 8	 231	 0.0001	 0.01	 0	 83.7	 98.6	 125.55	 0	 0	 1	-30	 30;
	 9	 10	 0.01322	 0.01777	 0.00191	 62	 62	 62	 0	 0	 1	-30	 30;
	 9	 35	 0.03636	 0.12066	 0.01181	 114	 114	 114	 0	 0	 1	-30	 30;
	 9	 42	 0.02331	 0.07893	 0.00745	 69	 69	 69	 0	 0	 1	-30	 30;
	 10	 21	 0.02231	 0.07231	 0.01493	 75	 75	 75	 0	 0	 1	-30	 30;
	 11	 18	 0.02868	 0.09256	 0.00951	 123	 123	 123	 0	 0	 1	-30	 30;
	 11	 165	 0.0001	 0.01	 0	 83.7	 98.6	 125.55	 0	 0	 1	-30	 30;
	 12	 41	 0.02975	 0.09587	 0.01007	 137	 137	 137	 0	 0	 1	-30	 30;
	 12	 243	 0.0001	 0.01	 0	 83.7	 98.6	 125.55	 0	 0	 1	-30	 30;
	 13	 36	 0.01039	 0.05083	 0.00494	 133	 133	 133	 0	 0	 1	-30	 30;
	 13	 38	 0.02446	 0.04347	 0.00404	 69	 69	 69	 0	 0	 1	-30	 30;
	 14	 15	 0.00149	 0.00496	 0.00048	 137	 137	 137	 0	 0	 1	-30	 30;
	 14	 46	 0.00688	 0.02158	 0.0024	 137	 137	 137	 0	 0	 1	-30	 30;
	 15	 44	 0.00273	 0.00826	 0.00085	 120	 120	 120	 0	 0	 1	-30	 30;
	 16	 17	 8e-05	 0.00083	 0	 438	 438	 438	 0	 0	 1	-30	 30;
	 16	 21	 0.0314	 0.09884	 0.01074	 123	 123	 123	 0	 0	 1	-30	 30;
	 16	 24	 0.04	 0.12959	 0.01329	 151.36	 196.77	 196.77	 0	 0	 1	-30	 30;
	 16	 43	 0.00736	 0.0238	 0.00251	 114	 114	 114	 0	 0	 1	-30	 30;
	 17	 18	 8e-05	 0.00083	 0	 438	 438	 438	 0	 0	 1	-30	 30;
	 17	 25	 0.04025	 0.13025	 0.01336	 114.35	 148.65	 148.65	 0	 0	 1	-30	 30;
	 17	 27	 0.02124	 0.0686	 0.00704	 123	 123	 123	 0	 0	 1	-30	 30;
	 17	 44	 0.0095	 0.02455	 0.00256	 114	 114	 114	 0	 0	 1	-30	 30;
	 18	 30	 0.02781	 0.07968	 0.00807	 123	 123	 123	 0	 0	 1	-30	 30;
	 18	 46	 0.00883	 0.02792	 0.00305	 137	 137	 137	 0	 0	 1	-30	 30;
	 20	 28	 0.00983	 0.01727	 0.00163	 69	 69	 69	 0	 0	 1	-30	 30;
	 20	 35	 0.04669	 0.08182	 0.00774	 90	 90	 90	 0	 0	 1	-30	 30;
	 20	 39	 0.00992	 0.03322	 0.00419	 107	 107	 107	 0	 0	 1	-30	 30;
	 20	 45	 0.02455	 0.07992	 0.00823	 123	 123	 123	 0	 0	 1	-30	 30;
	 22	 45	 0.01338	 0.04326	 0.00444	 140	 140	 140	 0	 0	 1	-30	 30;
	 23	 24	 8e-05	 0.00083	 0	 438	 438	 438	 0	 0	 1	-30	 30;
	 23	 25	 8e-05	 0.00083	 0	 438	 438	 438	 0	 0	 1	-30	 30;
	 23	 26	 0.00405	 0.01331	 0.00138	 95	 95	 95	 0	 0	 1	-30	 30;
	 23	 47	 0.03017	 0.09764	 0.01004	 123	 123	 123	 0	 0	 1	-30	 30;
	 26	 32	 0.02074	 0.06628	 0.00699	 126	 126	 126	 0	 0	 1	-30	 30;
	 27	 39	 0.03364	 0.10744	 0.01016	 107	 107	 107	 0	 0	 1	-30	 30;
	 28	 38	 0.05322	 0.09347	 0.00882	 69	 69	 69	 0	 0	 1	-30	 30;
	 29	 36	 0.03603	 0.12893	 0.01251	 90.54	 108.65	 135.81	 0	 0	 1	-30	 30;
	 29	 105	 0.0001	 0.01	 0	 83.7	 98.6	 125.55	 0	 0	 1	-30	 30;
	 31	 41	 0.00512	 0.01653	 0.00174	 137	 137	 137	 0	 0	 1	-30	 30;
	 31	 47	 0.01103	 0.03572	 0.00367	 123	 123	 123	 0	 0	 1	-30	 30;
	 32	 45	 0.02835	 0.09223	 0.00951	 137	 137	 137	 0	 0	 1	-30	 30;
	 33	 43	 0.00826	 0.01653	 0.00194	 114	 114	 114	 0	 0	 1	-30	 30;
	 33	 44	 0.00421	 0.01074	 0.00121	 114	 114	 114	 0	 0	 1	-30	 30;
	 34	 36	 0.03041	 0.0986	 0.01013	 114	 114	 114	 0	 0	 1	-30	 30;
	 36	 37	 0.03587	 0.1157	 0.0122	 140	 140	 140	 0	 0	 1	-30	 30;
	 36	 235	 0.0001	 0.01	 0	 627.77	 753.32	 941.65	 0	 0	 1	-30	 30;
	 37	 81	 0.0001	 0.01	 0	 83.7	 98.6	 125.55	 0	 0	 1	-30	 30;
	 40	 42	 0.01976	 0.0514	 0.00515	 69	 69	 69	 0	 0	 1	-30	 30;
	 44	 48	 0.02017	 0.05223	 0.00545	 120	 120	 120	 0	 0	 1	-30	 30;
	 44	 49	 0.03562	 0.10942	 0.01146	 69	 69	 69	 0	 0	 1	-30	 30;
	 49	 109	 0.0001	 0.01	 0	 83.7	 98.6	 125.55	 0	 0	 1	-30	 30;
	 50	 51	 2e-05	 0.00021	 0	 876	 876	 876	 0	 0	 1	-30	 30;
	 50	 53	 0.00568	 0.04012	 0.07033	 317	 317	 317	 0	 0	 1	-30	 30;
	 50	 58	 0.00105	 0.00733	 0.01258	 231	 231	 231	 0	 0	 1	-30	 30;
	 52	 53	 2e-05	 0.00021	 0	 876	 876	 876	 0	 0	 1	-30	 30;
	 52	 90	 0.0018	 0.01616	 0.0484	 754.02	 980.22	 980.22	 0	 0	 1	-30	 30;
	 52	 147	 0.0001	 0.01	 0	 487.52	 585.02	 731.27	 0	 0	 1	-30	 30;
	 53	 54	 0.00064	 0.0305	 0	 709.38	 922.2	 922.2	 1.07408	 0	 1	-30	 30;
	 74	 53	 0.00163	 0.06136	 0	 160	 160	 160	 1.0215	 0	 1	-30	 30;
	 53	 90	 0.0018	 0.01616	 0.0484	 734.76	 955.19	 955.19	 0	 0	 1	-30	 30;
	 54	 55	 1e-05	 6e-05	 0	 1593	 1593	 1593	 0	 0	 1	-30	 30;
	 54	 63	 0.00296	 0.03484	 0.9296	 838	 838	 838	 0	 0	 1	-30	 30;
	 55	 60	 0.00373	 0.04344	 1.172	 831	 831	 831	 0	 0	 1	-30	 30;
	 57	 56	 0.00032	 0.04392	 0	 562.44	 731.18	 731.18	 0.9999	 0	 1	-30	 30;
	 56	 60	 0.00228	 0.02296	 0.8129	 1386	 1386	 1386	 0	 0	 1	-30	 30;
	 56	 215	 0.0001	 0.01	 0	 494.5	 593.4	 741.75	 0	 0	 1	-30	 30;
	 78	 57	-0.00023	 0.09951	 0	 260	 312	 390	 0.96037	 0	 1	-30	 30;
	 59	 60	 0.00035	 0.02375	 0	 500	 500	 500	 1.08671	 0	 1	-30	 30;
	 79	 60	 0.00101	 0.06188	 0	 330	 330	 330	 1.1306	 0	 1	-30	 30;
	 80	 60	 0.00153	 0.06206	 0	 250	 250	 250	 1.10126	 0	 1	-30	 30;
	 60	 89	 0.00019	 0.00196	 0.06877	 831	 831	 831	 0	 0	 1	-30	 30;
	 61	 62	 0.00051	 0.0275	 0	 400	 400	 400	 1.07702	 0	 1	-30	 30;
	 62	 63	 1e-05	 6e-05	 0	 1593	 1593	 1593	 0	 0	 1	-30	 30;
	 62	 64	 0.00131	 0.01547	 0.41152	 838	 838	 838	 0	 0	 1	-30	 30;
	 64	 223	 0.0001	 0.01	 0	 300.15	 360.18	 450.22	 0	 0	 1	-30	 30;
	 65	 77	 0.01452	 0.04917	 0.00487	 120	 120	 120	 0	 0	 1	-30	 30;
	 65	 80	 0.02276	 0.0771	 0.00763	 153.09	 199.01	 199.01	 0	 0	 1	-30	 30;
	 66	 67	 8e-05	 0.00083	 0	 438	 438	 438	 0	 0	 1	-30	 30;
	 66	 74	 0.00064	 0.00483	 0.00047	 161.57	 193.89	 242.36	 0	 0	 1	-30	 30;
	 68	 80	 0.00731	 0.01279	 0.00122	 78	 78	 78	 0	 0	 1	-30	 30;
	 69	 83	 0.02035	 0.03558	 0.0034	 78	 78	 78	 0	 0	 1	-30	 30;
	 70	 84	 0.00202	 0.00325	 0.02903	 80	 80	 80	 0	 0	 1	-30	 30;
	 71	 75	 0.00405	 0.01331	 0.00138	 123	 123	 123	 0	 0	 1	-30	 30;
	 71	 80	 0.00574	 0.01944	 0.00192	 160.2	 208.26	 208.26	 0	 0	 1	-30	 30;
	 72	 87	 0.04645	 0.08174	 0.00801	 93.92	 112.71	 140.88	 0	 0	 1	-30	 30;
	 72	 247	 0.0001	 0.01	 0	 83.7	 98.6	 125.55	 0	 0	 1	-30	 30;
	 73	 79	 0.01612	 0.05405	 0.00532	 170.4	 221.52	 221.52	 0	 0	 1	-30	 30;
	 73	 86	 0.00615	 0.02083	 0.00206	 209.66	 272.55	 272.55	 0	 0	 1	-30	 30;
	 73	 239	 0.0001	 0.01	 0	 119.22	 143.06	 178.83	 0	 0	 1	-30	 30;
	 76	 79	 0.01344	 0.02383	 0.00227	 116.43	 151.36	 151.36	 0	 0	 1	-30	 30;
	 76	 83	 0.00698	 0.01279	 0.00098	 78	 78	 78	 0	 0	 1	-30	 30;
	 79	 85	 0.00959	 0.02474	 0.00251	 160.94	 209.22	 209.22	 0	 0	 1	-30	 30;
	 79	 87	 0.02397	 0.04223	 0.00414	 78	 78	 78	 0	 0	 1	-30	 30;
	 80	 81	 0.08066	 0.14207	 0.01348	 180.21	 234.28	 234.28	 0	 0	 1	-30	 30;
	 80	 84	 0.00959	 0.02474	 0.00251	 102	 102	 102	 0	 0	 1	-30	 30;
	 81	 82	 8e-05	 0.00083	 0	 438	 438	 438	 0	 0	 1	-30	 30;
	 85	 88	 0.00413	 0.01405	 0.00138	 173.24	 207.88	 259.85	 0	 0	 1	-30	 30;
	 91	 111	 0.06171	 0.10799	 0.0018	 260	 312	 390	 0	 0	 1	-30	 30;
	 91	 137	 0.01711	 0.02994	 0.0005	 260	 312	 390	 0	 0	 1	-30	 30;
	 92	 118	 0.0355	 0.06201	 0.00104	 260	 312	 390	 0	 0	 1	-30	 30;
	 92	 132	 0.01907	 0.03338	 0.00054	 260	 312	 390	 0	 0	 1	-30	 30;
	 121	 93	 0.1522	 0.1534	 0	 260	 312	 390	 1	 0	 1	-30	 30;
	 94	 96	 0.0287	 0.05023	 0.00082	 260	 312	 390	 0	 0	 1	-30	 30;
	 95	 110	 0.01814	 0.03174	 0.00054	 260	 312	 390	 0	 0	 1	-30	 30;
	 96	 102	 0.0275	 0.0482	 0.0008	 260	 312	 390	 0	 0	 1	-30	 30;
	 96	 118	 0.0662	 0.11584	 0.00192	 260	 312	 390	 0	 0	 1	-30	 30;
	 103	 97	 0	 0.03225	 0	 260	 312	 390	 1.0224	 0	 1	-30	 30;
	 97	 172	 0.0001	 0.01	 0	 83.7	 98.6	 125.55	 0	 0	 1	-30	 30;
	 98	 104	 0.1184	 0.2053	 0	 260	 312	 390	 0	 0	 1	-30	 30;
	 98	 133	 0.0421	 0.0755	 0	 260	 312	 390	 0	 0	 1	-30	 30;
	 99	 101	 0.09799	 0.17147	 0.00284	 260	 312	 390	 0	 0	 1	-30	 30;
	 100	 107	 0.00458	 0.00802	 0.00014	 260	 312	 390	 0	 0	 1	-30	 30;
	 100	 112	 0.0869	 0.1522	 0.0025	 260	 312	 390	 0	 0	 1	-30	 30;
	 100	 130	 0.08499	 0.14873	 0.00246	 260	 312	 390	 0	 0	 1	-30	 30;
	 101	 106	 0.05256	 0.1335	 0.00256	 260	 312	 390	 0	 0	 1	-30	 30;
	 101	 117	 0.10089	 0.17655	 0.00292	 260	 312	 390	 0	 0	 1	-30	 30;
	 102	 130	 0.0275	 0.0482	 0.0008	 260	 312	 390	 0	 0	 1	-30	 30;
	 103	 127	 0.02901	 0.18849	 0.09302	 260	 312	 390	 0	 0	 1	-30	 30;
	 103	 140	 0	 0.14449	 0	 260	 312	 390	 1.02	 0	 1	-30	 30;
	 103	 140	 0	 0.14449	 0	 260	 312	 390	 1.02	 0	 1	-30	 30;
	 104	 113	 0.06826	 0.11944	 0.00198	 260	 312	 390	 0	 0	 1	-30	 30;
	 105	 126	 0	 0.10324	 0	 260	 312	 390	 0.9825	 0	 1	-30	 30;
	 109	 106	 0	 0.13708	 0	 260	 312	 390	 0.9795	 0	 1	-30	 30;
	 106	 125	 0.01752	 0.04449	 0.00086	 260	 312	 390	 0	 0	 1	-30	 30;
	 107	 137	 0.07022	 0.12288	 0.00204	 260	 312	 390	 0	 0	 1	-30	 30;
	 121	 108	 0.1522	 0.1534	 0	 260	 312	 390	 1	 0	 1	-30	 30;
	 110	 113	 0.04273	 0.07477	 0.00124	 260	 312	 390	 0	 0	 1	-30	 30;
	 112	 134	 0.04834	 0.08459	 0.0014	 260	 312	 390	 0	 0	 1	-30	 30;
	 113	 119	 0.02122	 0.03714	 0.00062	 260	 312	 390	 0	 0	 1	-30	 30;
	 114	 125	 0.08574	 0.15004	 0.0025	 260	 312	 390	 0	 0	 1	-30	 30;
	 115	 133	 0.0612	 0.1072	 0.00178	 260	 312	 390	 0	 0	 1	-30	 30;
	 115	 134	 0.0719	 0.1258	 0.00208	 260	 312	 390	 0	 0	 1	-30	 30;
	 116	 126	 0.08415	 0.14726	 0.00244	 260	 312	 390	 0	 0	 1	-30	 30;
	 116	 131	 0.0234	 0.0593	 0.00112	 260	 312	 390	 0	 0	 1	-30	 30;
	 117	 124	 0.0785	 0.1374	 0.0028	 260	 312	 390	 0	 0	 1	-30	 30;
	 117	 126	 0.14137	 0.24739	 0.0041	 260	 312	 390	 0	 0	 1	-30	 30;
	 120	 141	 0.00944	 0.01653	 0.00026	 260	 312	 390	 0	 0	 1	-30	 30;
	 121	 123	 0.1522	 0.1534	 0	 260	 312	 390	 1	 0	 1	-30	 30;
	 121	 127	 0.00019	 0.00118	 0.00061	 260	 312	 390	 0	 0	 1	-30	 30;
	 122	 129	 0.09182	 0.16067	 0.00266	 260	 312	 390	 0	 0	 1	-30	 30;
	 124	 128	 0.07948	 0.13908	 0.0023	 260	 312	 390	 0	 0	 1	-30	 30;
	 125	 128	 0.12286	 0.215	 0.00356	 260	 312	 390	 0	 0	 1	-30	 30;
	 126	 130	 0.052	 0.1837	 0.00368	 260	 312	 390	 0	 0	 1	-30	 30;
	 126	 136	 0.01661	 0.03417	 0.00064	 260	 312	 390	 0	 0	 1	-30	 30;
	 128	 140	 0.1004	 0.20654	 0.00378	 260	 312	 390	 0	 0	 1	-30	 30;
	 129	 138	 0.0187	 0.03272	 0.00054	 260	 312	 390	 0	 0	 1	-30	 30;
	 129	 141	 0.07536	 0.13188	 0.00218	 260	 312	 390	 0	 0	 1	-30	 30;
	 134	 135	 0.06558	 0.16654	 0.00318	 260	 312	 390	 0	 0	 1	-30	 30;
	 134	 139	 0.02749	 0.0481	 0.0008	 260	 312	 390	 0	 0	 1	-30	 30;
	 135	 140	 0.02155	 0.05472	 0.00104	 260	 312	 390	 0	 0	 1	-30	 30;
	 136	 140	 0.10084	 0.20745	 0.0038	 260	 312	 390	 0	 0	 1	-30	 30;
	 140	 141	 0.06246	 0.1093	 0.00182	 260	 312	 390	 0	 0	 1	-30	 30;
	 142	 143	 2e-05	 0.00021	 0	 876	 876	 876	 0	 0	 1	-30	 30;
	 142	 146	 0.00171	 0.00961	 0.01424	 250	 250	 250	 0	 0	 1	-30	 30;
	 166	 142	 0.00141	 0.06975	 0	 160	 160	 160	 1.02312	 0	 1	-30	 30;
	 144	 145	 2e-05	 0.00021	 0	 876	 876	 876	 0	 0	 1	-30	 30;
...